version 2
run Default-0-20231216-23:22:05-10936
attr configname Default
attr datetime 20231216-23:22:05
attr experiment Default
attr inifile omnetpp.ini
attr iterationvars ""
attr iterationvarsf ""
attr measurement ""
attr network RSUExampleScenario
attr processid 10936
attr repetition 0
attr replication #0
attr resultdir results
attr runnumber 0
attr seedset 0
param *.playgroundSizeX 2500m
param *.playgroundSizeY 2500m
param *.playgroundSizeZ 50m
param *.annotations.draw true
param *.obstacles.obstacles "xmldoc(\"config.xml\", \"//AnalogueModel[@type='SimpleObstacleShadowing']/obstacles\")"
param *.manager.updateInterval 1s
param *.manager.host "\"localhost\""
param *.manager.port 9999
param *.manager.autoShutdown true
param *.manager.launchConfig "xmldoc(\"erlangen.launchd.xml\")"
param *.manager.trafficLightModuleType "\"org.car2x.veins.nodes.TrafficLight\""
param *.tls[*].mobility.x 0
param *.tls[*].mobility.y 0
param *.tls[*].mobility.z 3
param *.tls[*].applType "\"org.car2x.veins.modules.application.traci.TraCIDemoTrafficLightApp\""
param *.tls[*].logicType "\"org.car2x.veins.modules.world.traci.trafficLight.logics.TraCITrafficLightSimpleLogic\""
param *.rsu[0].mobility.x 2000
param *.rsu[0].mobility.y 2000
param *.rsu[0].mobility.z 3
param *.rsu[*].applType "\"TraCIDemoRSU11p\""
param *.rsu[*].appl.headerLength "80 bit"
param *.rsu[*].appl.sendBeacons false
param *.rsu[*].appl.dataOnSch false
param *.rsu[*].appl.beaconInterval 1s
param *.rsu[*].appl.beaconUserPriority 7
param *.rsu[*].appl.dataUserPriority 5
param *.rsu[*].nic.phy80211p.antennaOffsetZ "0 m"
param *.connectionManager.sendDirect true
param *.connectionManager.maxInterfDist 2600m
param *.connectionManager.drawMaxIntfDist false
param *.**.nic.mac1609_4.useServiceChannel false
param *.**.nic.mac1609_4.txPower 20mW
param *.**.nic.mac1609_4.bitrate 6Mbps
param *.**.nic.phy80211p.minPowerLevel -110dBm
param *.**.nic.phy80211p.useNoiseFloor true
param *.**.nic.phy80211p.noiseFloor -98dBm
param *.**.nic.phy80211p.decider "xmldoc(\"config.xml\")"
param *.**.nic.phy80211p.analogueModels "xmldoc(\"config.xml\")"
param *.**.nic.phy80211p.usePropagationDelay true
param *.**.nic.phy80211p.antenna "xmldoc(\"antenna.xml\", \"/root/Antenna[@id='monopole']\")"
param *.node[*].nic.phy80211p.antennaOffsetY "0 m"
param *.node[*].nic.phy80211p.antennaOffsetZ "1.895 m"
param *.node[*].applType "\"TraCIDemo11p\""
param *.node[*].appl.headerLength "80 bit"
param *.node[*].appl.sendBeacons false
param *.node[*].appl.dataOnSch false
param *.node[*].appl.beaconInterval 1s
param *.node[*].veinsmobility.x 0
param *.node[*].veinsmobility.y 0
param *.node[*].veinsmobility.z 0
param *.node[*].veinsmobility.setHostSpeed false
param *.node[*0].veinsmobility.accidentCount 1
param *.node[*0].veinsmobility.accidentStart 73s
param *.node[*0].veinsmobility.accidentDuration 50s

vector 0 RSUExampleScenario.node[0].veinsmobility posx ETV
vector 1 RSUExampleScenario.node[0].veinsmobility posy ETV
vector 2 RSUExampleScenario.node[0].veinsmobility speed ETV
vector 3 RSUExampleScenario.node[0].veinsmobility acceleration ETV
vector 4 RSUExampleScenario.node[0].veinsmobility co2emission ETV
vector 5 RSUExampleScenario.node[1].veinsmobility posx ETV
vector 6 RSUExampleScenario.node[1].veinsmobility posy ETV
vector 7 RSUExampleScenario.node[1].veinsmobility speed ETV
vector 8 RSUExampleScenario.node[1].veinsmobility acceleration ETV
vector 9 RSUExampleScenario.node[1].veinsmobility co2emission ETV
vector 10 RSUExampleScenario.node[2].veinsmobility posx ETV
vector 11 RSUExampleScenario.node[2].veinsmobility posy ETV
vector 12 RSUExampleScenario.node[2].veinsmobility speed ETV
vector 13 RSUExampleScenario.node[2].veinsmobility acceleration ETV
vector 14 RSUExampleScenario.node[2].veinsmobility co2emission ETV
vector 15 RSUExampleScenario.node[3].veinsmobility posx ETV
vector 16 RSUExampleScenario.node[3].veinsmobility posy ETV
vector 17 RSUExampleScenario.node[3].veinsmobility speed ETV
vector 18 RSUExampleScenario.node[3].veinsmobility acceleration ETV
vector 19 RSUExampleScenario.node[3].veinsmobility co2emission ETV
vector 20 RSUExampleScenario.node[4].veinsmobility posx ETV
vector 21 RSUExampleScenario.node[4].veinsmobility posy ETV
vector 22 RSUExampleScenario.node[4].veinsmobility speed ETV
vector 23 RSUExampleScenario.node[4].veinsmobility acceleration ETV
vector 24 RSUExampleScenario.node[4].veinsmobility co2emission ETV
vector 25 RSUExampleScenario.node[5].veinsmobility posx ETV
vector 26 RSUExampleScenario.node[5].veinsmobility posy ETV
vector 27 RSUExampleScenario.node[5].veinsmobility speed ETV
vector 28 RSUExampleScenario.node[5].veinsmobility acceleration ETV
vector 29 RSUExampleScenario.node[5].veinsmobility co2emission ETV
vector 30 RSUExampleScenario.node[6].veinsmobility posx ETV
vector 31 RSUExampleScenario.node[6].veinsmobility posy ETV
vector 32 RSUExampleScenario.node[6].veinsmobility speed ETV
vector 33 RSUExampleScenario.node[6].veinsmobility acceleration ETV
vector 34 RSUExampleScenario.node[6].veinsmobility co2emission ETV
vector 35 RSUExampleScenario.node[7].veinsmobility posx ETV
vector 36 RSUExampleScenario.node[7].veinsmobility posy ETV
vector 37 RSUExampleScenario.node[7].veinsmobility speed ETV
vector 38 RSUExampleScenario.node[7].veinsmobility acceleration ETV
vector 39 RSUExampleScenario.node[7].veinsmobility co2emission ETV
vector 40 RSUExampleScenario.node[8].veinsmobility posx ETV
vector 41 RSUExampleScenario.node[8].veinsmobility posy ETV
vector 42 RSUExampleScenario.node[8].veinsmobility speed ETV
vector 43 RSUExampleScenario.node[8].veinsmobility acceleration ETV
vector 44 RSUExampleScenario.node[8].veinsmobility co2emission ETV
vector 45 RSUExampleScenario.node[9].veinsmobility posx ETV
vector 46 RSUExampleScenario.node[9].veinsmobility posy ETV
vector 47 RSUExampleScenario.node[9].veinsmobility speed ETV
vector 48 RSUExampleScenario.node[9].veinsmobility acceleration ETV
vector 49 RSUExampleScenario.node[9].veinsmobility co2emission ETV
vector 50 RSUExampleScenario.node[10].veinsmobility posx ETV
vector 51 RSUExampleScenario.node[10].veinsmobility posy ETV
vector 52 RSUExampleScenario.node[10].veinsmobility speed ETV
vector 53 RSUExampleScenario.node[10].veinsmobility acceleration ETV
vector 54 RSUExampleScenario.node[10].veinsmobility co2emission ETV
vector 55 RSUExampleScenario.node[11].veinsmobility posx ETV
vector 56 RSUExampleScenario.node[11].veinsmobility posy ETV
vector 57 RSUExampleScenario.node[11].veinsmobility speed ETV
vector 58 RSUExampleScenario.node[11].veinsmobility acceleration ETV
vector 59 RSUExampleScenario.node[11].veinsmobility co2emission ETV
vector 60 RSUExampleScenario.node[12].veinsmobility posx ETV
vector 61 RSUExampleScenario.node[12].veinsmobility posy ETV
vector 62 RSUExampleScenario.node[12].veinsmobility speed ETV
vector 63 RSUExampleScenario.node[12].veinsmobility acceleration ETV
vector 64 RSUExampleScenario.node[12].veinsmobility co2emission ETV
vector 65 RSUExampleScenario.node[13].veinsmobility posx ETV
vector 66 RSUExampleScenario.node[13].veinsmobility posy ETV
vector 67 RSUExampleScenario.node[13].veinsmobility speed ETV
vector 68 RSUExampleScenario.node[13].veinsmobility acceleration ETV
vector 69 RSUExampleScenario.node[13].veinsmobility co2emission ETV
vector 70 RSUExampleScenario.node[14].veinsmobility posx ETV
vector 71 RSUExampleScenario.node[14].veinsmobility posy ETV
vector 72 RSUExampleScenario.node[14].veinsmobility speed ETV
vector 73 RSUExampleScenario.node[14].veinsmobility acceleration ETV
vector 74 RSUExampleScenario.node[14].veinsmobility co2emission ETV
vector 75 RSUExampleScenario.node[15].veinsmobility posx ETV
vector 76 RSUExampleScenario.node[15].veinsmobility posy ETV
vector 77 RSUExampleScenario.node[15].veinsmobility speed ETV
vector 78 RSUExampleScenario.node[15].veinsmobility acceleration ETV
vector 79 RSUExampleScenario.node[15].veinsmobility co2emission ETV
vector 80 RSUExampleScenario.node[16].veinsmobility posx ETV
vector 81 RSUExampleScenario.node[16].veinsmobility posy ETV
vector 82 RSUExampleScenario.node[16].veinsmobility speed ETV
vector 83 RSUExampleScenario.node[16].veinsmobility acceleration ETV
vector 84 RSUExampleScenario.node[16].veinsmobility co2emission ETV
vector 85 RSUExampleScenario.node[17].veinsmobility posx ETV
vector 86 RSUExampleScenario.node[17].veinsmobility posy ETV
vector 87 RSUExampleScenario.node[17].veinsmobility speed ETV
vector 88 RSUExampleScenario.node[17].veinsmobility acceleration ETV
vector 89 RSUExampleScenario.node[17].veinsmobility co2emission ETV
vector 90 RSUExampleScenario.node[18].veinsmobility posx ETV
vector 91 RSUExampleScenario.node[18].veinsmobility posy ETV
vector 92 RSUExampleScenario.node[18].veinsmobility speed ETV
vector 93 RSUExampleScenario.node[18].veinsmobility acceleration ETV
vector 94 RSUExampleScenario.node[18].veinsmobility co2emission ETV
vector 95 RSUExampleScenario.node[19].veinsmobility posx ETV
vector 96 RSUExampleScenario.node[19].veinsmobility posy ETV
vector 97 RSUExampleScenario.node[19].veinsmobility speed ETV
vector 98 RSUExampleScenario.node[19].veinsmobility acceleration ETV
vector 99 RSUExampleScenario.node[19].veinsmobility co2emission ETV
vector 100 RSUExampleScenario.node[20].veinsmobility posx ETV
vector 101 RSUExampleScenario.node[20].veinsmobility posy ETV
vector 102 RSUExampleScenario.node[20].veinsmobility speed ETV
vector 103 RSUExampleScenario.node[20].veinsmobility acceleration ETV
vector 104 RSUExampleScenario.node[20].veinsmobility co2emission ETV
vector 105 RSUExampleScenario.node[21].veinsmobility posx ETV
vector 106 RSUExampleScenario.node[21].veinsmobility posy ETV
vector 107 RSUExampleScenario.node[21].veinsmobility speed ETV
vector 108 RSUExampleScenario.node[21].veinsmobility acceleration ETV
vector 109 RSUExampleScenario.node[21].veinsmobility co2emission ETV
vector 110 RSUExampleScenario.node[22].veinsmobility posx ETV
vector 111 RSUExampleScenario.node[22].veinsmobility posy ETV
vector 112 RSUExampleScenario.node[22].veinsmobility speed ETV
vector 113 RSUExampleScenario.node[22].veinsmobility acceleration ETV
vector 114 RSUExampleScenario.node[22].veinsmobility co2emission ETV
vector 115 RSUExampleScenario.node[23].veinsmobility posx ETV
vector 116 RSUExampleScenario.node[23].veinsmobility posy ETV
vector 117 RSUExampleScenario.node[23].veinsmobility speed ETV
vector 118 RSUExampleScenario.node[23].veinsmobility acceleration ETV
vector 119 RSUExampleScenario.node[23].veinsmobility co2emission ETV
vector 120 RSUExampleScenario.node[24].veinsmobility posx ETV
vector 121 RSUExampleScenario.node[24].veinsmobility posy ETV
vector 122 RSUExampleScenario.node[24].veinsmobility speed ETV
vector 123 RSUExampleScenario.node[24].veinsmobility acceleration ETV
vector 124 RSUExampleScenario.node[24].veinsmobility co2emission ETV
vector 125 RSUExampleScenario.node[25].veinsmobility posx ETV
vector 126 RSUExampleScenario.node[25].veinsmobility posy ETV
vector 127 RSUExampleScenario.node[25].veinsmobility speed ETV
vector 128 RSUExampleScenario.node[25].veinsmobility acceleration ETV
vector 129 RSUExampleScenario.node[25].veinsmobility co2emission ETV
vector 130 RSUExampleScenario.node[26].veinsmobility posx ETV
vector 131 RSUExampleScenario.node[26].veinsmobility posy ETV
vector 132 RSUExampleScenario.node[26].veinsmobility speed ETV
vector 133 RSUExampleScenario.node[26].veinsmobility acceleration ETV
vector 134 RSUExampleScenario.node[26].veinsmobility co2emission ETV
vector 135 RSUExampleScenario.node[27].veinsmobility posx ETV
vector 136 RSUExampleScenario.node[27].veinsmobility posy ETV
vector 137 RSUExampleScenario.node[27].veinsmobility speed ETV
vector 138 RSUExampleScenario.node[27].veinsmobility acceleration ETV
vector 139 RSUExampleScenario.node[27].veinsmobility co2emission ETV
vector 140 RSUExampleScenario.node[28].veinsmobility posx ETV
vector 141 RSUExampleScenario.node[28].veinsmobility posy ETV
vector 142 RSUExampleScenario.node[28].veinsmobility speed ETV
vector 143 RSUExampleScenario.node[28].veinsmobility acceleration ETV
vector 144 RSUExampleScenario.node[28].veinsmobility co2emission ETV
vector 145 RSUExampleScenario.node[29].veinsmobility posx ETV
vector 146 RSUExampleScenario.node[29].veinsmobility posy ETV
vector 147 RSUExampleScenario.node[29].veinsmobility speed ETV
vector 148 RSUExampleScenario.node[29].veinsmobility acceleration ETV
vector 149 RSUExampleScenario.node[29].veinsmobility co2emission ETV
vector 150 RSUExampleScenario.node[30].veinsmobility posx ETV
vector 151 RSUExampleScenario.node[30].veinsmobility posy ETV
vector 152 RSUExampleScenario.node[30].veinsmobility speed ETV
vector 153 RSUExampleScenario.node[30].veinsmobility acceleration ETV
vector 154 RSUExampleScenario.node[30].veinsmobility co2emission ETV
vector 155 RSUExampleScenario.node[31].veinsmobility posx ETV
vector 156 RSUExampleScenario.node[31].veinsmobility posy ETV
vector 157 RSUExampleScenario.node[31].veinsmobility speed ETV
vector 158 RSUExampleScenario.node[31].veinsmobility acceleration ETV
vector 159 RSUExampleScenario.node[31].veinsmobility co2emission ETV
vector 160 RSUExampleScenario.node[32].veinsmobility posx ETV
vector 161 RSUExampleScenario.node[32].veinsmobility posy ETV
vector 162 RSUExampleScenario.node[32].veinsmobility speed ETV
vector 163 RSUExampleScenario.node[32].veinsmobility acceleration ETV
vector 164 RSUExampleScenario.node[32].veinsmobility co2emission ETV
vector 165 RSUExampleScenario.node[33].veinsmobility posx ETV
vector 166 RSUExampleScenario.node[33].veinsmobility posy ETV
vector 167 RSUExampleScenario.node[33].veinsmobility speed ETV
vector 168 RSUExampleScenario.node[33].veinsmobility acceleration ETV
vector 169 RSUExampleScenario.node[33].veinsmobility co2emission ETV
vector 170 RSUExampleScenario.node[34].veinsmobility posx ETV
vector 171 RSUExampleScenario.node[34].veinsmobility posy ETV
vector 172 RSUExampleScenario.node[34].veinsmobility speed ETV
vector 173 RSUExampleScenario.node[34].veinsmobility acceleration ETV
vector 174 RSUExampleScenario.node[34].veinsmobility co2emission ETV
vector 175 RSUExampleScenario.node[35].veinsmobility posx ETV
vector 176 RSUExampleScenario.node[35].veinsmobility posy ETV
vector 177 RSUExampleScenario.node[35].veinsmobility speed ETV
vector 178 RSUExampleScenario.node[35].veinsmobility acceleration ETV
vector 179 RSUExampleScenario.node[35].veinsmobility co2emission ETV
vector 180 RSUExampleScenario.node[36].veinsmobility posx ETV
vector 181 RSUExampleScenario.node[36].veinsmobility posy ETV
vector 182 RSUExampleScenario.node[36].veinsmobility speed ETV
vector 183 RSUExampleScenario.node[36].veinsmobility acceleration ETV
vector 184 RSUExampleScenario.node[36].veinsmobility co2emission ETV
vector 185 RSUExampleScenario.node[37].veinsmobility posx ETV
vector 186 RSUExampleScenario.node[37].veinsmobility posy ETV
vector 187 RSUExampleScenario.node[37].veinsmobility speed ETV
vector 188 RSUExampleScenario.node[37].veinsmobility acceleration ETV
vector 189 RSUExampleScenario.node[37].veinsmobility co2emission ETV
vector 190 RSUExampleScenario.node[38].veinsmobility posx ETV
vector 191 RSUExampleScenario.node[38].veinsmobility posy ETV
vector 192 RSUExampleScenario.node[38].veinsmobility speed ETV
vector 193 RSUExampleScenario.node[38].veinsmobility acceleration ETV
vector 194 RSUExampleScenario.node[38].veinsmobility co2emission ETV
vector 195 RSUExampleScenario.node[39].veinsmobility posx ETV
vector 196 RSUExampleScenario.node[39].veinsmobility posy ETV
vector 197 RSUExampleScenario.node[39].veinsmobility speed ETV
vector 198 RSUExampleScenario.node[39].veinsmobility acceleration ETV
vector 199 RSUExampleScenario.node[39].veinsmobility co2emission ETV
vector 200 RSUExampleScenario.node[40].veinsmobility posx ETV
vector 201 RSUExampleScenario.node[40].veinsmobility posy ETV
vector 202 RSUExampleScenario.node[40].veinsmobility speed ETV
vector 203 RSUExampleScenario.node[40].veinsmobility acceleration ETV
vector 204 RSUExampleScenario.node[40].veinsmobility co2emission ETV
vector 205 RSUExampleScenario.node[41].veinsmobility posx ETV
vector 206 RSUExampleScenario.node[41].veinsmobility posy ETV
vector 207 RSUExampleScenario.node[41].veinsmobility speed ETV
vector 208 RSUExampleScenario.node[41].veinsmobility acceleration ETV
vector 209 RSUExampleScenario.node[41].veinsmobility co2emission ETV
vector 210 RSUExampleScenario.node[42].veinsmobility posx ETV
vector 211 RSUExampleScenario.node[42].veinsmobility posy ETV
vector 212 RSUExampleScenario.node[42].veinsmobility speed ETV
vector 213 RSUExampleScenario.node[42].veinsmobility acceleration ETV
vector 214 RSUExampleScenario.node[42].veinsmobility co2emission ETV
vector 215 RSUExampleScenario.node[43].veinsmobility posx ETV
vector 216 RSUExampleScenario.node[43].veinsmobility posy ETV
vector 217 RSUExampleScenario.node[43].veinsmobility speed ETV
vector 218 RSUExampleScenario.node[43].veinsmobility acceleration ETV
vector 219 RSUExampleScenario.node[43].veinsmobility co2emission ETV
vector 220 RSUExampleScenario.node[44].veinsmobility posx ETV
vector 221 RSUExampleScenario.node[44].veinsmobility posy ETV
vector 222 RSUExampleScenario.node[44].veinsmobility speed ETV
vector 223 RSUExampleScenario.node[44].veinsmobility acceleration ETV
vector 224 RSUExampleScenario.node[44].veinsmobility co2emission ETV
vector 225 RSUExampleScenario.node[45].veinsmobility posx ETV
vector 226 RSUExampleScenario.node[45].veinsmobility posy ETV
vector 227 RSUExampleScenario.node[45].veinsmobility speed ETV
vector 228 RSUExampleScenario.node[45].veinsmobility acceleration ETV
vector 229 RSUExampleScenario.node[45].veinsmobility co2emission ETV
vector 230 RSUExampleScenario.node[46].veinsmobility posx ETV
vector 231 RSUExampleScenario.node[46].veinsmobility posy ETV
vector 232 RSUExampleScenario.node[46].veinsmobility speed ETV
vector 233 RSUExampleScenario.node[46].veinsmobility acceleration ETV
vector 234 RSUExampleScenario.node[46].veinsmobility co2emission ETV
vector 235 RSUExampleScenario.node[47].veinsmobility posx ETV
vector 236 RSUExampleScenario.node[47].veinsmobility posy ETV
vector 237 RSUExampleScenario.node[47].veinsmobility speed ETV
vector 238 RSUExampleScenario.node[47].veinsmobility acceleration ETV
vector 239 RSUExampleScenario.node[47].veinsmobility co2emission ETV
vector 240 RSUExampleScenario.node[48].veinsmobility posx ETV
vector 241 RSUExampleScenario.node[48].veinsmobility posy ETV
vector 242 RSUExampleScenario.node[48].veinsmobility speed ETV
vector 243 RSUExampleScenario.node[48].veinsmobility acceleration ETV
vector 244 RSUExampleScenario.node[48].veinsmobility co2emission ETV
vector 245 RSUExampleScenario.node[49].veinsmobility posx ETV
vector 246 RSUExampleScenario.node[49].veinsmobility posy ETV
vector 247 RSUExampleScenario.node[49].veinsmobility speed ETV
vector 248 RSUExampleScenario.node[49].veinsmobility acceleration ETV
vector 249 RSUExampleScenario.node[49].veinsmobility co2emission ETV
vector 250 RSUExampleScenario.node[50].veinsmobility posx ETV
vector 251 RSUExampleScenario.node[50].veinsmobility posy ETV
vector 252 RSUExampleScenario.node[50].veinsmobility speed ETV
vector 253 RSUExampleScenario.node[50].veinsmobility acceleration ETV
vector 254 RSUExampleScenario.node[50].veinsmobility co2emission ETV
vector 255 RSUExampleScenario.node[51].veinsmobility posx ETV
vector 256 RSUExampleScenario.node[51].veinsmobility posy ETV
vector 257 RSUExampleScenario.node[51].veinsmobility speed ETV
vector 258 RSUExampleScenario.node[51].veinsmobility acceleration ETV
vector 259 RSUExampleScenario.node[51].veinsmobility co2emission ETV
vector 260 RSUExampleScenario.node[52].veinsmobility posx ETV
vector 261 RSUExampleScenario.node[52].veinsmobility posy ETV
vector 262 RSUExampleScenario.node[52].veinsmobility speed ETV
vector 263 RSUExampleScenario.node[52].veinsmobility acceleration ETV
vector 264 RSUExampleScenario.node[52].veinsmobility co2emission ETV
vector 265 RSUExampleScenario.node[53].veinsmobility posx ETV
vector 266 RSUExampleScenario.node[53].veinsmobility posy ETV
vector 267 RSUExampleScenario.node[53].veinsmobility speed ETV
vector 268 RSUExampleScenario.node[53].veinsmobility acceleration ETV
vector 269 RSUExampleScenario.node[53].veinsmobility co2emission ETV
vector 270 RSUExampleScenario.node[54].veinsmobility posx ETV
vector 271 RSUExampleScenario.node[54].veinsmobility posy ETV
vector 272 RSUExampleScenario.node[54].veinsmobility speed ETV
vector 273 RSUExampleScenario.node[54].veinsmobility acceleration ETV
vector 274 RSUExampleScenario.node[54].veinsmobility co2emission ETV
vector 275 RSUExampleScenario.node[55].veinsmobility posx ETV
vector 276 RSUExampleScenario.node[55].veinsmobility posy ETV
vector 277 RSUExampleScenario.node[55].veinsmobility speed ETV
vector 278 RSUExampleScenario.node[55].veinsmobility acceleration ETV
vector 279 RSUExampleScenario.node[55].veinsmobility co2emission ETV
vector 280 RSUExampleScenario.node[56].veinsmobility posx ETV
vector 281 RSUExampleScenario.node[56].veinsmobility posy ETV
vector 282 RSUExampleScenario.node[56].veinsmobility speed ETV
vector 283 RSUExampleScenario.node[56].veinsmobility acceleration ETV
vector 284 RSUExampleScenario.node[56].veinsmobility co2emission ETV
vector 285 RSUExampleScenario.node[57].veinsmobility posx ETV
vector 286 RSUExampleScenario.node[57].veinsmobility posy ETV
vector 287 RSUExampleScenario.node[57].veinsmobility speed ETV
vector 288 RSUExampleScenario.node[57].veinsmobility acceleration ETV
vector 289 RSUExampleScenario.node[57].veinsmobility co2emission ETV
vector 290 RSUExampleScenario.node[58].veinsmobility posx ETV
vector 291 RSUExampleScenario.node[58].veinsmobility posy ETV
vector 292 RSUExampleScenario.node[58].veinsmobility speed ETV
vector 293 RSUExampleScenario.node[58].veinsmobility acceleration ETV
vector 294 RSUExampleScenario.node[58].veinsmobility co2emission ETV
vector 295 RSUExampleScenario.node[59].veinsmobility posx ETV
vector 296 RSUExampleScenario.node[59].veinsmobility posy ETV
vector 297 RSUExampleScenario.node[59].veinsmobility speed ETV
vector 298 RSUExampleScenario.node[59].veinsmobility acceleration ETV
vector 299 RSUExampleScenario.node[59].veinsmobility co2emission ETV
vector 300 RSUExampleScenario.node[60].veinsmobility posx ETV
vector 301 RSUExampleScenario.node[60].veinsmobility posy ETV
vector 302 RSUExampleScenario.node[60].veinsmobility speed ETV
vector 303 RSUExampleScenario.node[60].veinsmobility acceleration ETV
vector 304 RSUExampleScenario.node[60].veinsmobility co2emission ETV
vector 305 RSUExampleScenario.node[61].veinsmobility posx ETV
vector 306 RSUExampleScenario.node[61].veinsmobility posy ETV
vector 307 RSUExampleScenario.node[61].veinsmobility speed ETV
vector 308 RSUExampleScenario.node[61].veinsmobility acceleration ETV
vector 309 RSUExampleScenario.node[61].veinsmobility co2emission ETV
vector 310 RSUExampleScenario.node[62].veinsmobility posx ETV
vector 311 RSUExampleScenario.node[62].veinsmobility posy ETV
vector 312 RSUExampleScenario.node[62].veinsmobility speed ETV
vector 313 RSUExampleScenario.node[62].veinsmobility acceleration ETV
vector 314 RSUExampleScenario.node[62].veinsmobility co2emission ETV
vector 315 RSUExampleScenario.node[63].veinsmobility posx ETV
vector 316 RSUExampleScenario.node[63].veinsmobility posy ETV
vector 317 RSUExampleScenario.node[63].veinsmobility speed ETV
vector 318 RSUExampleScenario.node[63].veinsmobility acceleration ETV
vector 319 RSUExampleScenario.node[63].veinsmobility co2emission ETV
vector 320 RSUExampleScenario.node[64].veinsmobility posx ETV
vector 321 RSUExampleScenario.node[64].veinsmobility posy ETV
vector 322 RSUExampleScenario.node[64].veinsmobility speed ETV
vector 323 RSUExampleScenario.node[64].veinsmobility acceleration ETV
vector 324 RSUExampleScenario.node[64].veinsmobility co2emission ETV
vector 325 RSUExampleScenario.node[65].veinsmobility posx ETV
vector 326 RSUExampleScenario.node[65].veinsmobility posy ETV
vector 327 RSUExampleScenario.node[65].veinsmobility speed ETV
vector 328 RSUExampleScenario.node[65].veinsmobility acceleration ETV
vector 329 RSUExampleScenario.node[65].veinsmobility co2emission ETV
vector 330 RSUExampleScenario.node[66].veinsmobility posx ETV
vector 331 RSUExampleScenario.node[66].veinsmobility posy ETV
vector 332 RSUExampleScenario.node[66].veinsmobility speed ETV
0	2	1	2414.8476884116
0	3	2	2411.8243290941
0	4	3	2407.1592244543
0	5	4	2402.288200066
0	6	5	2396.1394374635
0	7	6	2388.6993875942
0	8	7	2379.889221533
0	9	8	2370.1207192459
0	10	9	2360.3141803208
0	11	10	2350.5099475634
0	12	11	2341.0010868867
0	13	12	2334.5620136983
0	14	13	2337.6803779466
0	15	14	2348.3497968862
0	16	15	2358.6961674725
0	17	16	2371.6616533546
0	18	17	2385.4706804305
0	19	18	2399.3588350668
0	20	19	2412.4541998667
0	21	20	2421.4418196582
0	22	21	2428.417609864
0	23	22	2431.468930052
0	24	23	2433.1513403206
0	25	24	2435.1237040944
0	26	25	2437.2173147583
0	27	26	2438.6437980286
0	28	27	2439.5074353185
0	29	28	2440.517813261
0	30	29	2441.5286354903
0	31	30	2442.5392864447
0	32	31	2443.5505626462
0	33	32	2444.5611125134
0	34	33	2445.5724211388
0	35	34	2446.5834693939
0	36	35	2447.5934051003
0	37	36	2448.6036931522
0	38	37	2449.6148620235
0	39	38	2450.6248001783
0	40	39	2449.5880553933
0	41	40	2448.4757357414
0	42	41	2447.3635385588
0	43	42	2446.250303259
0	44	43	2445.1365203297
0	45	44	2444.0235521834
0	46	45	2442.9111769209
0	47	46	2441.7982721732
0	48	47	2440.6856421625
0	49	48	2439.7151308154
0	50	49	2438.7725309408
0	51	50	2437.9056889905
0	52	51	2432.8785054281
0	53	52	2422.5273191113
0	54	53	2409.439604845
0	55	54	2395.517893619
0	56	55	2381.592286239
0	57	56	2367.6659531716
0	58	57	2353.7601239877
0	59	58	2339.8337569573
0	60	59	2325.9069679289
0	61	60	2311.9542202253
0	62	61	2298.0325140053
0	63	62	2284.0857072632
0	64	63	2270.1754193477
0	65	64	2256.2378749268
0	66	65	2242.3725172955
0	67	66	2228.5568932705
0	68	67	2214.8035730832
0	69	68	2201.6130456962
0	70	69	2188.4247624045
0	71	70	2175.5107078577
0	72	71	2163.5018647154
0	73	72	2152.2359160049
0	74	73	2144.5614629743
0	76	74	2140.764952604
0	77	75	2140.3209259163
0	78	76	2140.3209259163
0	79	77	2140.3209259163
0	80	78	2140.3209259163
0	81	79	2140.3209259163
0	82	80	2140.3209259163
0	83	81	2140.3209259163
0	84	82	2140.3209259163
0	85	83	2140.3209259163
0	86	84	2140.3209259163
0	203	85	2140.3209259163
0	204	86	2140.3209259163
0	2052	87	2140.3209259163
0	2053	88	2140.3209259163
0	5400	89	2140.3209259163
0	5401	90	2140.3209259163
0	5900	91	2140.3209259163
0	5901	92	2140.3209259163
0	6033	93	2140.3209259163
0	6034	94	2140.3209259163
0	6035	95	2140.3209259163
0	6036	96	2140.3209259163
0	6037	97	2140.3209259163
0	6038	98	2140.3209259163
0	6039	99	2140.3209259163
0	6040	100	2140.3209259163
0	6041	101	2140.3209259163
0	6042	102	2140.3209259163
0	6043	103	2140.3209259163
0	6045	104	2140.3209259163
0	6046	105	2140.3209259163
0	6047	106	2140.3209259163
0	6048	107	2140.3209259163
0	6049	108	2140.3209259163
0	6050	109	2140.3209259163
0	6051	110	2140.3209259163
0	6052	111	2140.3209259163
0	6053	112	2140.3209259163
0	6054	113	2140.3209259163
0	6055	114	2140.3209259163
0	6056	115	2140.3209259163
0	6057	116	2140.3209259163
0	6058	117	2140.3209259163
0	6059	118	2140.3209259163
0	6060	119	2140.3209259163
0	6061	120	2140.3209259163
0	6062	121	2140.3209259163
0	6063	122	2140.3209259163
0	6064	123	2140.3209259163
0	6066	124	2139.2968867624
0	6067	125	2136.7389751441
0	6068	126	2133.0417300543
0	6069	127	2128.0104965516
0	6070	128	2121.6756363601
0	6071	129	2113.9033126336
0	6072	130	2104.7698103111
0	6073	131	2095.2406216187
0	6074	132	2085.7035411549
0	6075	133	2076.1875061716
0	6077	134	2066.6433728429
0	6078	135	2057.1213969737
0	6079	136	2047.5816524108
0	6080	137	2037.6029490368
0	6081	138	2027.6294604754
0	6082	139	2017.6123925993
0	6083	140	2007.6083104342
0	6084	141	1997.5979494115
0	6085	142	1987.5987100747
0	6086	143	1977.6103723238
0	6087	144	1967.6219060847
0	6088	145	1957.6292998412
0	6089	146	1947.6436493916
0	6090	147	1937.6560055723
0	6091	148	1927.9261270026
0	6092	149	1918.1998157738
0	6093	150	1908.4672243788
0	6094	151	1898.7271060897
0	6095	152	1889.0029817786
0	6096	153	1879.2595442766
0	6098	154	1869.5259211212
0	6099	155	1859.791401117
0	6100	156	1850.0585748916
0	6101	157	1840.3230037142
0	6102	158	1830.3485841108
0	6103	159	1820.2447044594
0	6104	160	1810.1357504753
0	6105	161	1800.1565797509
0	6106	162	1790.1948247917
0	6107	163	1780.2356253507
0	6109	164	1770.2829497023
0	6110	165	1760.3182612085
0	6111	166	1750.3436304645
0	6112	167	1740.3949006784
0	6113	168	1730.4253736633
0	6114	169	1720.4740291536
0	6115	170	1710.5161015036
0	6116	171	1700.5673439852
0	6117	172	1690.6008595297
0	6118	173	1680.6657211825
0	6119	174	1670.7168479548
0	6337	175	1660.7644946704
0	6338	176	1650.8062082113
0	9308	177	1640.8385331451
0	9309	178	1630.8767479567
0	14860	179	1620.9255842031
0	14861	180	1611.1428820255
0	15930	181	1601.3302327476
0	15931	182	1591.5133121955
0	15932	183	1581.6885121891
0	15934	184	1571.8622846779
0	15935	185	1562.0312373085
0	15936	186	1551.5881341359
0	15937	187	1541.0370814161
0	15938	188	1530.480022126
0	15939	189	1519.9409731607
0	15940	190	1509.3924763758
0	15941	191	1498.3844079254
0	15942	192	1486.9771838083
0	15943	193	1475.571167993
0	15945	194	1464.1629678771
0	15946	195	1452.7544457492
0	15947	196	1440.5821409714
0	15948	197	1427.9677691719
0	15949	198	1415.3325943742
0	15950	199	1402.6946483905
0	15951	200	1389.3874849548
1	2	1	1578.4613427464
1	3	2	1579.5715045081
1	4	3	1581.5561876604
1	5	4	1586.4898643075
1	6	5	1592.7177137369
1	7	6	1600.2534592729
1	8	7	1609.1769437566
1	9	8	1619.0710908128
1	10	9	1629.0037637418
1	11	10	1638.9341008412
1	12	11	1649.1129276818
1	13	12	1661.0453354148
1	14	13	1673.5713017788
1	15	14	1682.4825292248
1	16	15	1691.8131453674
1	17	16	1695.5671389326
1	18	17	1697.3762977775
1	19	18	1698.7149431584
1	20	19	1699.9531973498
1	21	20	1700.8030368192
1	22	21	1701.4822415169
1	23	22	1709.488976148
1	24	23	1720.5600911779
1	25	24	1733.5392477075
1	26	25	1747.3162704222
1	27	26	1761.1584832035
1	28	27	1775.0702432813
1	29	28	1788.9649324082
1	30	29	1802.8657313576
1	31	30	1816.7641749373
1	32	31	1830.6712168986
1	33	32	1844.5682703312
1	34	33	1858.4757581847
1	35	34	1872.3796654344
1	36	35	1886.2682729438
1	37	36	1900.1617258992
1	38	37	1914.0672918586
1	39	38	1927.95593304
1	40	39	1941.8192613758
1	41	40	1955.7024557721
1	42	41	1969.5841215905
1	43	42	1983.4787444612
1	44	43	1997.3802024601
1	45	44	2011.2714909082
1	46	45	2025.1553793969
1	47	46	2039.0458765477
1	48	47	2052.9329446238
1	49	48	2066.8462265795
1	50	49	2080.7728807703
1	51	50	2094.6498483503
1	52	51	2107.3969092406
1	53	52	2116.410831539
1	54	53	2120.9360540062
1	55	54	2120.5048353085
1	56	55	2120.0344859883
1	57	56	2119.5641121576
1	58	57	2119.0944308629
1	59	58	2118.6240558857
1	60	59	2118.1536666537
1	61	60	2117.6824006466
1	62	61	2117.2121830918
1	63	62	2116.7411177447
1	64	63	2116.2712858524
1	65	64	2115.8005333487
1	66	65	2114.7955725584
1	67	66	2112.8364102887
1	68	67	2110.6440530941
1	69	68	2106.1704403665
1	70	69	2101.6975887315
1	71	70	2096.6391956527
1	72	71	2089.5697793076
1	73	72	2082.9376931852
1	74	73	2078.419863862
1	76	74	2076.1849181512
1	77	75	2075.9235266512
1	78	76	2075.9235266512
1	79	77	2075.9235266512
1	80	78	2075.9235266512
1	81	79	2075.9235266512
1	82	80	2075.9235266512
1	83	81	2075.9235266512
1	84	82	2075.9235266512
1	85	83	2075.9235266512
1	86	84	2075.9235266512
1	203	85	2075.9235266512
1	204	86	2075.9235266512
1	2052	87	2075.9235266512
1	2053	88	2075.9235266512
1	5400	89	2075.9235266512
1	5401	90	2075.9235266512
1	5900	91	2075.9235266512
1	5901	92	2075.9235266512
1	6033	93	2075.9235266512
1	6034	94	2075.9235266512
1	6035	95	2075.9235266512
1	6036	96	2075.9235266512
1	6037	97	2075.9235266512
1	6038	98	2075.9235266512
1	6039	99	2075.9235266512
1	6040	100	2075.9235266512
1	6041	101	2075.9235266512
1	6042	102	2075.9235266512
1	6043	103	2075.9235266512
1	6045	104	2075.9235266512
1	6046	105	2075.9235266512
1	6047	106	2075.9235266512
1	6048	107	2075.9235266512
1	6049	108	2075.9235266512
1	6050	109	2075.9235266512
1	6051	110	2075.9235266512
1	6052	111	2075.9235266512
1	6053	112	2075.9235266512
1	6054	113	2075.9235266512
1	6055	114	2075.9235266512
1	6056	115	2075.9235266512
1	6057	116	2075.9235266512
1	6058	117	2075.9235266512
1	6059	118	2075.9235266512
1	6060	119	2075.9235266512
1	6061	120	2075.9235266512
1	6062	121	2075.9235266512
1	6063	122	2075.9235266512
1	6064	123	2075.9235266512
1	6066	124	2075.1249021161
1	6067	125	2072.86423006
1	6068	126	2068.9174167952
1	6069	127	2063.5465694079
1	6070	128	2056.7840990741
1	6071	129	2048.4871348105
1	6072	130	2038.7371108737
1	6073	131	2028.5646912949
1	6074	132	2018.3838472413
1	6075	133	2008.2254692623
1	6077	134	1998.0370962676
1	6078	135	1987.8723763861
1	6079	136	1977.7352778362
1	6080	137	1968.0349910427
1	6081	138	1958.3397735637
1	6082	139	1948.6021926794
1	6083	140	1938.8772351909
1	6084	141	1929.1461740322
1	6085	142	1919.4259242518
1	6086	143	1909.7162718913
1	6087	144	1900.0064946283
1	6088	145	1890.2926928708
1	6089	146	1880.5856528329
1	6090	147	1870.8754119454
1	6091	148	1860.9048139649
1	6092	149	1850.9378715828
1	6093	150	1840.9644936612
1	6094	151	1830.9834026285
1	6095	152	1821.0187012684
1	6096	153	1811.034208905
1	6098	154	1801.0597736975
1	6099	155	1791.0844194526
1	6100	156	1781.1108008912
1	6101	157	1771.1343694674
1	6102	158	1761.3842561403
1	6103	159	1751.7881461149
1	6104	160	1742.1872167662
1	6105	161	1732.436735265
1	6106	162	1722.674090636
1	6107	163	1712.913950447
1	6109	164	1703.1602036562
1	6110	165	1693.3946841266
1	6111	166	1683.6194210676
1	6112	167	1673.8695412716
1	6113	168	1664.0992799308
1	6114	169	1654.3468376724
1	6115	170	1644.5879438547
1	6116	171	1634.8380368808
1	6117	172	1625.0707572857
1	6118	173	1615.3341972707
1	6119	174	1605.5841768999
1	6337	175	1595.8307460295
1	6338	176	1586.0715005742
1	9308	177	1576.303054167
1	9309	178	1566.5403799126
1	14860	179	1556.7881147983
1	14861	180	1547.0222159941
1	15930	181	1537.1168000745
1	15931	182	1527.2070725001
1	15932	183	1517.2893909812
1	15934	184	1507.3702684622
1	15935	185	1497.4462805195
1	15936	186	1488.1830884209
1	15937	187	1479.0563710714
1	15938	188	1469.9244580064
1	15939	189	1460.8081239704
1	15940	190	1451.6836175183
1	15941	191	1443.1674592569
1	15942	192	1435.1285502845
1	15943	193	1427.0904928278
1	15945	194	1419.0508960485
1	15946	195	1411.0110723414
1	15947	196	1404.3090573121
1	15948	197	1398.3618894313
1	15949	198	1392.4049137747
1	15950	199	1386.446631616
1	15951	200	1382.0975830667
2	3	2	4.1061966058897
2	4	3	6.0195495591482
2	5	4	7.7148368984793
2	6	5	9.5879868385225
2	7	6	11.391389363371
2	8	7	13.513839789145
2	9	8	13.99235115225
2	10	9	13.890224446259
2	11	10	13.976677174468
2	12	11	13.994826577434
2	13	12	13.923680325528
2	14	13	13.923542996629
2	15	14	13.91007151508
2	16	15	13.964598868005
2	17	16	13.995233640105
2	18	17	13.952304350403
2	19	18	13.956911946491
2	20	19	11.503494614513
2	21	20	7.0034946145128
2	22	21	7.8970062485022
2	23	22	10.10483181514
2	24	23	11.990706169653
2	25	24	13.981089308816
2	26	25	13.965594365916
2	27	26	13.989059597438
2	28	27	13.956378436291
2	29	28	13.910982951869
2	30	29	13.88918493646
2	31	30	13.908189346099
2	32	31	13.983992603337
2	33	32	13.971500478752
2	34	33	13.873081948087
2	35	34	13.985133641064
2	36	35	13.886848415199
2	37	36	13.876205747321
2	38	37	13.967912819823
2	39	38	13.871047234884
2	40	39	13.89239756926
2	41	40	13.872267716837
2	42	41	13.999815066161
2	43	42	13.964707984752
2	44	43	13.906584702837
2	45	44	13.922364303169
2	46	45	13.929034490574
2	47	46	13.93922677479
2	48	47	13.924399639922
2	49	48	13.96850544848
2	50	49	13.986686690277
2	51	50	13.935194088209
2	52	51	13.930097484484
2	53	52	13.948393711536
2	54	53	13.882971800906
2	55	54	13.87138918183
2	56	55	13.933780807857
2	57	56	13.942265776542
2	58	57	13.95140511482
2	59	58	13.886548467774
2	60	59	13.920721456567
2	61	60	13.906796863726
2	62	61	13.917803910668
2	63	62	13.924582225601
2	64	63	13.959688465288
2	65	64	13.957318032989
2	66	65	13.940553226951
2	67	66	13.998651232829
2	68	67	13.999179182528
2	69	68	13.886099785112
2	70	69	13.881868150404
2	71	70	13.887636745651
2	72	71	13.978686858166
2	73	72	11.380505228889
2	74	73	6.8805052288885
2	76	74	2.3805052288885
2	77	75	0
2	78	76	0
2	79	77	0
2	80	78	0
2	81	79	0
2	82	80	0
2	83	81	0
2	84	82	0
2	85	83	0
2	86	84	0
2	203	85	0
2	204	86	0
2	2052	87	0
2	2053	88	0
2	5400	89	0
2	5401	90	0
2	5900	91	0
2	5901	92	0
2	6033	93	0
2	6034	94	0
2	6035	95	0
2	6036	96	0
2	6037	97	0
2	6038	98	0
2	6039	99	0
2	6040	100	0
2	6041	101	0
2	6042	102	0
2	6043	103	0
2	6045	104	0
2	6046	105	0
2	6047	106	0
2	6048	107	0
2	6049	108	0
2	6050	109	0
2	6051	110	0
2	6052	111	0
2	6053	112	0
2	6054	113	0
2	6055	114	0
2	6056	115	0
2	6057	116	0
2	6058	117	0
2	6059	118	0
2	6060	119	0
2	6061	120	0
2	6062	121	0
2	6063	122	0
2	6064	123	0
2	6066	124	2.2219942613752
2	6067	125	4.3816652589273
2	6068	126	6.271098397682
2	6069	127	8.1846742143464
2	6070	128	10.238758130733
2	6071	129	12.368734642219
2	6072	130	13.962109271805
2	6073	131	13.914205637665
2	6074	132	13.944517719341
2	6075	133	13.879619830472
2	6077	134	13.987641519217
2	6078	135	13.937885804954
2	6079	136	13.882018232113
2	6080	137	13.87346287617
2	6081	138	13.915164393331
2	6082	139	13.962726174931
2	6083	140	13.991457488488
2	6084	141	13.93669091891
2	6085	142	13.946966261289
2	6086	143	13.874023362922
2	6087	144	13.888220233922
2	6088	145	13.910431938935
2	6089	146	13.915207219925
2	6090	147	13.934733790359
2	6091	148	13.947823643878
2	6092	149	13.938765405121
2	6093	150	13.884018056742
2	6094	151	13.98566509519
2	6095	152	13.928810386665
2	6096	153	13.878287675793
2	6098	154	13.960782518599
2	6099	155	13.994947284004
2	6100	156	13.975011026422
2	6101	157	13.946519697749
2	6102	158	13.954196195363
2	6103	159	13.908575135735
2	6104	160	13.893555851928
2	6105	161	13.925646835428
2	6106	162	13.888643742399
2	6107	163	13.956999772072
2	6109	164	13.877062078733
2	6110	165	13.932049612158
2	6111	166	13.972256193364
2	6112	167	13.873275855898
2	6113	168	13.931230680684
2	6114	169	13.926209465729
2	6115	170	13.898754838682
2	6116	171	13.947313222338
2	6117	172	13.961593384231
2	6118	173	13.917843037636
2	6119	174	13.919741549029
2	6337	175	13.914632304031
2	6338	176	13.937833442583
2	9308	177	13.940750114343
2	9309	178	13.926133309726
2	14860	179	13.909638810402
2	14861	180	13.93505833046
2	15930	181	13.960441317607
2	15931	182	13.885295731109
2	15932	183	13.905790732703
2	15934	184	13.983546870472
2	15935	185	13.97258714041
2	15936	186	13.942212230482
2	15937	187	13.950421822323
2	15938	188	13.942484037369
2	15939	189	13.924030080463
2	15940	190	13.910504624471
2	15941	191	13.913169015311
2	15942	192	13.878228765368
2	15943	193	13.990578826296
2	15945	194	13.945934779255
2	15946	195	13.918395916531
2	15947	196	13.873847689573
2	15948	197	13.941343907136
2	15949	198	13.972160039819
2	15950	199	13.947741319139
2	15951	200	13.939983172731
3	4	3	1.9133529532584
3	5	4	1.6952873393311
3	6	5	1.8731499400432
3	7	6	1.8034025248489
3	8	7	2.1224504257739
3	9	8	0.47851136310433
3	10	9	-0.1021267059911
3	11	10	0.086452728209551
3	12	11	0.018149402965792
3	13	12	-0.071146251906175
3	14	13	-0.0001373288989992
3	15	14	-0.013471481548622
3	16	15	0.054527352924923
3	17	16	0.03063477210002
3	18	17	-0.04292928970186
3	19	18	0.0046075960877356
3	20	19	-2.4534173319781
3	21	20	-4.5
3	22	21	0.8935116339894
3	23	22	2.2078255666373
3	24	23	1.8858743545134
3	25	24	1.9903831391631
3	26	25	-0.01549494290026
3	27	26	0.023465231521987
3	28	27	-0.032681161146611
3	29	28	-0.045395484422334
3	30	29	-0.021798015409148
3	31	30	0.019004409639164
3	32	31	0.075803257238585
3	33	32	-0.012492124584968
3	34	33	-0.098418530665803
3	35	34	0.11205169297755
3	36	35	-0.098285225864965
3	37	36	-0.01064266787842
3	38	37	0.091707072502468
3	39	38	-0.096865584938786
3	40	39	0.021350334375166
3	41	40	-0.020129852422979
3	42	41	0.12754734932445
3	43	42	-0.035107081409079
3	44	43	-0.058123281914741
3	45	44	0.015779600332026
3	46	45	0.0066701874043797
3	47	46	0.010192284216172
3	48	47	-0.014827134867664
3	49	48	0.044105808557942
3	50	49	0.018181241797283
3	51	50	-0.051492602068466
3	52	51	-0.0050966037251055
3	53	52	0.018296227052343
3	54	53	-0.065421910630539
3	55	54	-0.011582619075197
3	56	55	0.062391626026946
3	57	56	0.0084849686850799
3	58	57	0.0091393382777465
3	59	58	-0.064856647045817
3	60	59	0.034172988792415
3	61	60	-0.013924592840485
3	62	61	0.011007046941668
3	63	62	0.0067783149331806
3	64	63	0.035106239686721
3	65	64	-0.0023704322986315
3	66	65	-0.016764806038699
3	67	66	0.058098005878273
3	68	67	0.0005279496987356
3	69	68	-0.11307939741528
3	70	69	-0.0042316347081215
3	71	70	0.0057685952470639
3	72	71	0.091050112515221
3	73	72	-2.598181629278
3	74	73	-4.5
3	76	74	-4.5
3	77	75	-2.3805052288885
3	78	76	0
3	79	77	0
3	80	78	0
3	81	79	0
3	82	80	0
3	83	81	0
3	84	82	0
3	85	83	0
3	86	84	0
3	203	85	0
3	204	86	0
3	2052	87	0
3	2053	88	0
3	5400	89	0
3	5401	90	0
3	5900	91	0
3	5901	92	0
3	6033	93	0
3	6034	94	0
3	6035	95	0
3	6036	96	0
3	6037	97	0
3	6038	98	0
3	6039	99	0
3	6040	100	0
3	6041	101	0
3	6042	102	0
3	6043	103	0
3	6045	104	0
3	6046	105	0
3	6047	106	0
3	6048	107	0
3	6049	108	0
3	6050	109	0
3	6051	110	0
3	6052	111	0
3	6053	112	0
3	6054	113	0
3	6055	114	0
3	6056	115	0
3	6057	116	0
3	6058	117	0
3	6059	118	0
3	6060	119	0
3	6061	120	0
3	6062	121	0
3	6063	122	0
3	6064	123	0
3	6066	124	2.2219942613752
3	6067	125	2.1596709975521
3	6068	126	1.8894331387547
3	6069	127	1.9135758166644
3	6070	128	2.0540839163866
3	6071	129	2.1299765114859
3	6072	130	1.593374629586
3	6073	131	-0.047903634139804
3	6074	132	0.030312081675511
3	6075	133	-0.064897888868581
3	6077	134	0.10802168874536
3	6078	135	-0.0497557142633
3	6079	136	-0.055867572841235
3	6080	137	-0.0085553559428089
3	6081	138	0.041701517160982
3	6082	139	0.047561781599653
3	6083	140	0.028731313557364
3	6084	141	-0.054766569577623
3	6085	142	0.0102753423783
3	6086	143	-0.0729428983666
3	6087	144	0.014196870999875
3	6088	145	0.022211705013179
3	6089	146	0.0047752809897066
3	6090	147	0.019526570434682
3	6091	148	0.013089853518178
3	6092	149	-0.0090582387568432
3	6093	150	-0.054747348378879
3	6094	151	0.10164703844814
3	6095	152	-0.056854708525352
3	6096	153	-0.050522710871883
3	6098	154	0.082494842805898
3	6099	155	0.034164765405004
3	6100	156	-0.019936257582158
3	6101	157	-0.028491328672972
3	6102	158	0.0076764976140122
3	6103	159	-0.045621059627738
3	6104	160	-0.015019283806906
3	6105	161	0.032090983500238
3	6106	162	-0.037003093028906
3	6107	163	0.068356029673014
3	6109	164	-0.079937693339307
3	6110	165	0.054987533425447
3	6111	166	0.04020658120513
3	6112	167	-0.098980337465182
3	6113	168	0.057954824785702
3	6114	169	-0.0050212149554856
3	6115	170	-0.027454627046827
3	6116	171	0.0485583836562
3	6117	172	0.014280161892529
3	6118	173	-0.043750346594024
3	6119	174	0.0018985113920635
3	6337	175	-0.005109244997147
3	6338	176	0.023201138551812
3	9308	177	0.0029166717594489
3	9309	178	-0.014616804616525
3	14860	179	-0.01649449932389
3	14861	180	0.025419520058204
3	15930	181	0.025382987146731
3	15931	182	-0.075145586498547
3	15932	183	0.020495001594536
3	15934	184	0.077756137768738
3	15935	185	-0.010959730062169
3	15936	186	-0.030374909928069
3	15937	187	0.0082095918408598
3	15938	188	-0.0079377849539739
3	15939	189	-0.018453956905287
3	15940	190	-0.013525455992204
3	15941	191	0.0026643908396373
3	15942	192	-0.034940249943174
3	15943	193	0.11235006092815
3	15945	194	-0.044644047040492
3	15946	195	-0.027538862724324
3	15947	196	-0.04454822695814
3	15948	197	0.067496217563749
3	15949	198	0.030816132682375
3	15950	199	-0.024418720679824
3	15951	200	-0.0077581464080136
4	4	3	4.1962556146115
4	5	4	4.6765885426193
4	6	5	5.9822455727343
4	7	6	6.7469998477461
4	8	7	8.9023657158011
4	9	8	3.651678681686
4	10	9	1.6857621818206
4	11	10	2.3276633668785
4	12	11	2.0995306276608
4	13	12	1.7923040941768
4	14	13	2.0305681317735
4	15	14	1.9844951865828
4	16	15	2.2187318873595
4	17	16	2.1416854339172
4	18	17	1.8896148890835
4	19	18	2.0499339673421
4	20	19	0.973
4	21	20	0.973
4	22	21	3.236958348016
4	23	22	7.0694109561587
4	24	23	7.2974163894139
4	25	24	8.7433911631671
4	26	25	1.9831721788576
4	27	26	2.116835898497
4	28	27	1.9244585801898
4	29	28	1.8775583559564
4	30	29	1.9545657515643
4	31	30	2.0931646705581
4	32	31	2.2926746988581
4	33	32	1.993865292131
4	34	33	1.6968396252803
4	35	34	2.4149847823944
4	36	35	1.6983583398882
4	37	36	1.9906198998388
4	38	37	2.3442713071536
4	39	38	1.7018725964397
4	40	39	2.0993392475273
4	41	40	1.9585122345881
4	42	41	2.4691677522194
4	43	42	1.9170802753567
4	44	43	1.8345014514108
4	45	44	2.0838538984303
4	46	45	2.0539801513469
4	47	46	2.0668686152862
4	48	47	1.9813596940184
4	49	48	2.1840996762636
4	50	49	2.0987681125428
4	51	50	1.8592856847688
4	52	51	2.0145873760113
4	53	52	2.0950692067684
4	54	53	1.8080099866508
4	55	54	1.9870007069688
4	56	55	2.2415869227426
4	57	56	2.0614496349521
4	58	57	2.0646020593826
4	59	58	1.8102089718445
4	60	59	2.1453880261281
4	61	60	1.9826536733129
4	62	61	2.0673636130683
4	63	62	2.0538817544551
4	64	63	2.1528270365066
4	65	64	2.0265038417738
4	66	65	1.9764402783138
4	67	66	2.2347131127692
4	68	67	2.0405446651404
4	69	68	1.6487905152147
4	70	69	2.0126291187762
4	71	70	2.0466796925005
4	72	71	2.3433989621326
4	73	72	0.973
4	74	73	0.973
4	76	74	0.973
4	77	75	0.973
4	78	76	0.973
4	79	77	0.973
4	80	78	0.973
4	81	79	0.973
4	82	80	0.973
4	83	81	0.973
4	84	82	0.973
4	85	83	0.973
4	86	84	0.973
4	203	85	0.973
4	204	86	0.973
4	2052	87	0.973
4	2053	88	0.973
4	5400	89	0.973
4	5401	90	0.973
4	5900	91	0.973
4	5901	92	0.973
4	6033	93	0.973
4	6034	94	0.973
4	6035	95	0.973
4	6036	96	0.973
4	6037	97	0.973
4	6038	98	0.973
4	6039	99	0.973
4	6040	100	0.973
4	6041	101	0.973
4	6042	102	0.973
4	6043	103	0.973
4	6045	104	0.973
4	6046	105	0.973
4	6047	106	0.973
4	6048	107	0.973
4	6049	108	0.973
4	6050	109	0.973
4	6051	110	0.973
4	6052	111	0.973
4	6053	112	0.973
4	6054	113	0.973
4	6055	114	0.973
4	6056	115	0.973
4	6057	116	0.973
4	6058	117	0.973
4	6059	118	0.973
4	6060	119	0.973
4	6061	120	0.973
4	6062	121	0.973
4	6063	122	0.973
4	6064	123	0.973
4	6066	124	2.4080817491368
4	6067	125	3.6097150181135
4	6068	126	4.2908662920557
4	6069	127	5.3300190940896
4	6070	128	6.7716083595646
4	6071	129	8.2306431470796
4	6072	130	7.3964630212997
4	6073	131	1.8694407969886
4	6074	132	2.1350370330868
4	6075	133	1.8094749832879
4	6077	134	2.4017242150946
4	6078	135	1.8653612770894
4	6079	136	1.8398927616686
4	6080	137	1.9973272185625
4	6081	138	2.1700231934041
4	6082	139	2.1950764783891
4	6083	140	2.1348521217125
4	6084	141	1.848423466467
4	6085	142	2.0679571445659
4	6086	143	1.7820942605596
4	6087	144	2.0749497938408
4	6088	145	2.1041555485124
4	6089	146	2.0461934569666
4	6090	147	2.0977460374518
4	6091	148	2.0775076200446
4	6092	149	2.0021532082224
4	6093	150	1.8438174528787
4	6094	151	2.3799842198344
4	6095	152	1.8407138090759
4	6096	153	1.8574406286347
4	6098	154	2.3123894181885
4	6099	155	2.1535598612525
4	6100	156	1.9691423592976
4	6101	157	1.9376113298153
4	6102	158	2.0599739597323
4	6103	159	1.8765833152484
4	6104	160	1.9776849407054
4	6105	161	2.1389434248576
4	6106	162	1.90361967971
4	6107	163	2.2643696292587
4	6109	164	1.758956371415
4	6110	165	2.2165240828494
4	6111	166	2.1713934336231
4	6112	167	1.6949763447235
4	6113	168	2.2263921380345
4	6114	169	2.0144485842294
4	6115	170	1.9365417253911
4	6116	171	2.1966743274593
4	6117	172	2.0829635180368
4	6118	173	1.8837004459779
4	6119	174	2.0370102380603
4	6337	175	2.0129871808158
4	6338	176	2.110419931536
4	9308	177	2.0425838547677
4	9309	178	1.9822362093805
4	14860	179	1.9743186858806
4	14861	180	2.1175712673834
4	15930	181	2.1201968286833
4	15931	182	1.7756707209124
4	15932	183	2.0979048255299
4	15934	184	2.2992021735733
4	15935	185	1.9991334071776
4	15936	186	1.9308720231439
4	15937	187	2.061373566653
4	15938	188	2.0062896391449
4	15939	189	1.9691528347794
4	15940	190	1.9843569534359
4	15941	191	2.0389054582681
4	15942	192	1.909553286312
4	15943	193	2.4166957813598
4	15945	194	1.8832667947728
4	15946	195	1.9381296909057
4	15947	196	1.8770198494576
4	15948	197	2.2596233831924
4	15949	198	2.1397622924864
4	15950	199	1.9514174169799
4	15951	200	2.0066425778797
5	5	4	2414.8767583254
5	6	5	2411.8725636174
5	7	6	2407.2970525089
5	8	7	2402.4626210862
5	9	8	2396.3056860371
5	10	9	2388.8743536096
5	11	10	2380.097228827
5	12	11	2370.3507264333
5	13	12	2360.5878487076
5	14	13	2350.7849318213
5	15	14	2341.2418729237
5	16	15	2334.6305580324
5	17	16	2337.3467480277
5	18	17	2348.0519014368
5	19	18	2358.3998493504
5	20	19	2371.2788021446
5	21	20	2385.0887639745
5	22	21	2398.4985461925
5	23	22	2411.2485283293
5	24	23	2420.6905829484
5	25	24	2427.6440450998
5	26	25	2431.3031180431
5	27	26	2432.9057471878
5	28	27	2434.8184996871
5	29	28	2436.9106889558
5	30	29	2438.5031214217
5	31	30	2439.359314087
5	32	31	2440.3695716034
5	33	32	2441.3815056744
5	34	33	2442.392207776
5	35	34	2443.4019859718
5	36	35	2444.4122552489
5	37	36	2445.4251439738
5	38	37	2446.4367595227
5	39	38	2447.4467230743
5	40	39	2448.4574488286
5	41	40	2449.467800329
5	42	41	2450.4780716181
5	43	42	2449.7461704329
5	44	43	2448.6331060936
5	45	44	2447.5209445587
5	46	45	2446.407523851
5	47	46	2445.2946584851
5	48	47	2444.1824360332
5	49	48	2443.0706190476
5	50	49	2441.9568028547
5	51	50	2440.8451110823
5	52	51	2439.8503503047
5	53	52	2438.9091742415
5	54	53	2438.2310626655
5	55	54	2433.9050446447
5	56	55	2424.21615465
5	57	56	2411.3460908785
5	58	57	2397.4706148925
5	59	58	2383.5587488873
5	60	59	2369.633660475
5	61	60	2355.7048479554
5	62	61	2341.7904321874
5	63	62	2327.8638711022
5	64	63	2313.9188814831
5	65	64	2299.9979078089
5	66	65	2286.0826278217
5	67	66	2272.1551827891
5	68	67	2258.2333055256
5	69	68	2244.3319301521
5	70	69	2230.5388995206
5	71	70	2216.7493601282
5	72	71	2203.5089906314
5	73	72	2190.3028214657
5	74	73	2177.2175397498
5	76	74	2166.0508945999
5	77	75	2157.6231104804
5	78	76	2151.7712981963
5	79	77	2148.1230201763
5	80	78	2146.1290875688
5	81	79	2145.2101491778
5	82	80	2144.8407904832
5	83	81	2144.7060883162
5	84	82	2144.6576023959
5	85	83	2144.6402772203
5	86	84	2144.6340603527
5	203	85	2144.6318573126
5	204	86	2144.6310625414
5	2052	87	2144.6307734308
5	2053	88	2144.630670205
5	5400	89	2144.6306331899
5	5401	90	2144.6306208968
5	5900	91	2144.6306208968
5	5901	92	2144.6306208968
5	6033	93	2144.6306208968
5	6034	94	2144.6306208968
5	6035	95	2144.6306208968
5	6036	96	2144.6306208968
5	6037	97	2144.6306208968
5	6038	98	2144.6306208968
5	6039	99	2144.6306208968
5	6040	100	2144.6306208968
5	6041	101	2144.6306208968
5	6042	102	2144.6306208968
5	6043	103	2144.6306208968
5	6045	104	2144.6306208968
5	6046	105	2144.6306208968
5	6047	106	2144.6306208968
5	6048	107	2144.6306208968
5	6049	108	2144.6306208968
5	6050	109	2144.6306208968
5	6051	110	2144.6306208968
5	6052	111	2144.6306208968
5	6053	112	2144.6306208968
5	6054	113	2144.6306208968
5	6055	114	2144.6306208968
5	6056	115	2144.6306208968
5	6057	116	2144.6306208968
5	6058	117	2144.6306208968
5	6059	118	2144.6306208968
5	6060	119	2144.6306208968
5	6061	120	2144.6306208968
5	6062	121	2144.6306208968
5	6063	122	2144.6306208968
5	6064	123	2144.6306208968
5	6066	124	2144.271240926
5	6067	125	2142.4806794574
5	6068	126	2139.1421320778
5	6069	127	2134.9060802547
5	6070	128	2127.1476351008
5	6071	129	2120.4367071232
5	6072	130	2112.3720247579
5	6073	131	2103.1458484584
5	6074	132	2093.6277764036
5	6075	133	2084.0932923211
5	6077	134	2074.5776737646
5	6078	135	2065.0621022239
5	6079	136	2055.5494191108
5	6080	137	2046.0324037642
5	6081	138	2036.0468948298
5	6082	139	2026.0433869272
5	6083	140	2016.0544539228
5	6084	141	2006.0710674602
5	6085	142	1996.0828277187
5	6086	143	1986.0864328698
5	6087	144	1976.1042330253
5	6088	145	1966.0933695459
5	6089	146	1956.0860346018
5	6090	147	1946.1004532676
5	6091	148	1936.1034052128
5	6092	149	1926.3508274694
5	6093	150	1916.6163277385
5	6094	151	1906.886732759
5	6095	152	1897.1642934916
5	6096	153	1887.4360718232
5	6098	154	1877.7050088475
5	6099	155	1867.9712930534
5	6100	156	1858.2453157756
5	6101	157	1848.5149088484
5	6102	158	1838.7866450298
5	6103	159	1828.8663656547
5	6104	160	1818.7655445216
5	6105	161	1808.6536879344
5	6106	162	1798.6862498338
5	6107	163	1788.7263413786
5	6109	164	1778.7697745202
5	6110	165	1768.812996999
5	6111	166	1758.8610882476
5	6112	167	1748.9204618596
5	6113	168	1738.9898750285
5	6114	169	1729.0373829948
5	6115	170	1719.0896433379
5	6116	171	1709.1390468152
5	6117	172	1699.193342565
5	6118	173	1689.2361993233
5	6119	174	1679.2863782648
5	6337	175	1669.3432114742
5	6338	176	1659.3938795371
5	9308	177	1649.4251209022
5	9309	178	1639.4882410626
5	14860	179	1629.5239065279
5	14861	180	1619.5623401684
5	15930	181	1609.7584680327
5	15931	182	1599.965181965
5	15932	183	1590.1650684273
5	15934	184	1580.3638591984
5	15935	185	1570.5564541591
5	15936	186	1560.7601910948
5	15937	187	1550.435614087
5	15938	188	1539.9313759747
5	15939	189	1529.4025775295
5	15940	190	1518.8810130605
5	15941	191	1508.3670497201
5	15942	192	1497.4606263707
5	15943	193	1486.0718020729
5	15945	194	1474.6903809558
5	15946	195	1463.3313830317
5	15947	196	1451.9551262773
5	15948	197	1439.894334978
5	15949	198	1427.3210899583
5	15950	199	1414.7517842923
5	15951	200	1402.1782748748
6	5	4	1578.4506684253
6	6	5	1579.5537930429
6	7	6	1581.4165868293
6	8	7	1586.3131998433
6	9	8	1592.5493268352
6	10	9	1600.0762428036
6	11	10	1608.9662610246
6	12	11	1618.8381252186
6	13	12	1628.7265753681
6	14	13	1638.6555796713
6	15	14	1648.8046840783
6	16	15	1660.6325348346
6	17	16	1673.301875555
6	18	17	1682.2138796467
6	19	18	1691.5459182626
6	20	19	1695.5099147679
6	21	20	1697.3308411958
6	22	21	1698.6335971011
6	23	22	1699.8391930545
6	24	23	1700.7320023719
6	25	24	1701.2941834759
6	26	25	1708.3978488175
6	27	26	1718.9439634858
6	28	27	1731.5308475178
6	29	28	1745.2985167308
6	30	29	1759.1189484736
6	31	30	1773.033284259
6	32	31	1786.9263172904
6	33	32	1800.8424062571
6	34	33	1814.7415532097
6	35	34	1828.6279946407
6	36	35	1842.5211894047
6	37	36	1856.4504067414
6	38	37	1870.362115399
6	39	38	1884.2511058366
6	40	39	1898.150578063
6	41	40	1912.0449035605
6	42	41	1925.9381259941
6	43	42	1939.8457802581
6	44	43	1953.7382693188
6	45	44	1967.6194902081
6	46	45	1981.5164272105
6	47	46	1995.4064328251
6	48	47	2009.2884140396
6	49	48	2023.165334505
6	50	49	2037.0672076773
6	51	50	2050.942565321
6	52	51	2064.8483957723
6	53	52	2078.754013543
6	54	53	2092.6537938379
6	55	54	2105.6893007364
6	56	55	2115.3934075218
6	57	56	2120.5034639826
6	58	57	2120.5707901428
6	59	58	2120.100904949
6	60	59	2119.6305731572
6	61	60	2119.160115581
6	62	61	2118.6901442679
6	63	62	2118.2197627351
6	64	63	2117.748758764
6	65	64	2117.2785659507
6	66	65	2116.8085654471
6	67	66	2116.3381540589
6	68	67	2115.8679307271
6	69	68	2115.0734324455
6	70	69	2113.117474094
6	71	70	2111.1620108271
6	72	71	2106.8134566117
6	73	72	2102.3345389208
6	74	73	2097.6439806372
6	76	74	2091.0703529529
6	77	75	2086.1090495121
6	78	76	2082.6641800171
6	79	77	2080.516496351
6	80	78	2079.3426997084
6	81	79	2078.8017351869
6	82	80	2078.584299556
6	83	81	2078.5050025163
6	84	82	2078.4764596215
6	85	83	2078.4662605636
6	86	84	2078.4626007918
6	203	85	2078.4613038972
6	204	86	2078.4608360277
6	2052	87	2078.4606658332
6	2053	88	2078.4606050653
6	5400	89	2078.4605832752
6	5401	90	2078.4605760388
6	5900	91	2078.4605760388
6	5901	92	2078.4605760388
6	6033	93	2078.4605760388
6	6034	94	2078.4605760388
6	6035	95	2078.4605760388
6	6036	96	2078.4605760388
6	6037	97	2078.4605760388
6	6038	98	2078.4605760388
6	6039	99	2078.4605760388
6	6040	100	2078.4605760388
6	6041	101	2078.4605760388
6	6042	102	2078.4605760388
6	6043	103	2078.4605760388
6	6045	104	2078.4605760388
6	6046	105	2078.4605760388
6	6047	106	2078.4605760388
6	6048	107	2078.4605760388
6	6049	108	2078.4605760388
6	6050	109	2078.4605760388
6	6051	110	2078.4605760388
6	6052	111	2078.4605760388
6	6053	112	2078.4605760388
6	6054	113	2078.4605760388
6	6055	114	2078.4605760388
6	6056	115	2078.4605760388
6	6057	116	2078.4605760388
6	6058	117	2078.4605760388
6	6059	118	2078.4605760388
6	6060	119	2078.4605760388
6	6061	120	2078.4605760388
6	6062	121	2078.4605760388
6	6063	122	2078.4605760388
6	6064	123	2078.4605760388
6	6066	124	2078.249014724
6	6067	125	2077.1949394597
6	6068	126	2075.0013293456
6	6069	127	2070.9076127177
6	6070	128	2067.4490347402
6	6071	129	2060.285861616
6	6072	130	2051.6777054612
6	6073	131	2041.8297830392
6	6074	132	2031.6702941926
6	6075	133	2021.493287323
6	6077	134	2011.3364173146
6	6078	135	2001.1795974905
6	6079	136	1991.0258607436
6	6080	137	1980.8674998162
6	6081	138	1971.1253783628
6	6082	139	1961.401257514
6	6083	140	1951.691304503
6	6084	141	1941.9867431251
6	6085	142	1932.2774640145
6	6086	143	1922.5602575596
6	6087	144	1912.8568496592
6	6088	145	1903.125578667
6	6089	146	1893.3977376623
6	6090	147	1883.6910427129
6	6091	148	1873.9732012954
6	6092	149	1864.0175983226
6	6093	150	1854.0424315697
6	6094	151	1844.0722908285
6	6095	152	1834.1094827102
6	6096	153	1824.1407492319
6	6098	154	1814.1691042008
6	6099	155	1804.1947407657
6	6100	156	1794.2283071671
6	6101	157	1784.2573344037
6	6102	158	1774.2885577334
6	6103	159	1764.5284130014
6	6104	160	1754.9370631101
6	6105	161	1745.3352343775
6	6106	162	1735.6203876995
6	6107	163	1725.8595111202
6	6109	164	1716.1019093618
6	6110	165	1706.3441011505
6	6111	166	1696.5910644149
6	6112	167	1686.8490845831
6	6113	168	1677.1169436853
6	6114	169	1667.3633353235
6	6115	170	1657.6143843699
6	6116	171	1647.8626336399
6	6117	172	1638.1156774191
6	6118	173	1628.3575107958
6	6119	174	1618.6065200334
6	6337	175	1608.862050565
6	6338	176	1599.1115391506
6	9308	177	1589.3419892481
6	9309	178	1579.6036810968
6	14860	179	1569.8384668855
6	14861	180	1560.075965533
6	15930	181	1550.3167594709
6	15931	182	1540.4309222223
6	15932	183	1530.5381929809
6	15934	184	1520.6443576934
6	15935	185	1510.744268042
6	15936	186	1500.8554256624
6	15937	187	1491.5396928461
6	15938	188	1482.4545378098
6	15939	189	1473.3481404502
6	15940	190	1464.2479997836
6	15941	191	1455.1544333613
6	15942	192	1446.531081331
6	15943	193	1438.5106378896
6	15945	194	1430.4954080489
6	15946	195	1422.4959694752
6	15947	196	1414.4843765758
6	15948	197	1407.6295426786
6	15949	198	1401.7017644159
6	15950	199	1395.7758434005
6	15951	200	1389.8479404859
7	6	5	4.0332649588119
7	7	6	5.8265110515686
7	8	7	7.7852127750962
7	9	8	9.5658873894228
7	10	9	11.450149483434
7	11	10	13.391487500134
7	12	11	13.949883621705
7	13	12	13.87602620427
7	14	13	13.885232782268
7	15	14	13.987373048679
7	16	15	13.890608048609
7	17	16	13.887004709987
7	18	17	13.926980708602
7	19	18	13.89086526999
7	20	19	13.965056618985
7	21	20	13.946692067499
7	22	21	13.097137451398
7	23	22	11.939132677032
7	24	23	7.4783001788439
7	25	24	7.8592269216425
7	26	25	9.5749213322898
7	27	26	11.610942506126
7	28	27	13.581243869506
7	29	28	13.973211987913
7	30	29	13.918392209036
7	31	30	13.928662607018
7	32	31	13.985277111761
7	33	32	13.95532245066
7	34	33	13.938708755139
7	35	34	13.908545650935
7	36	35	13.927478809105
7	37	36	13.897819017794
7	38	37	13.989504252097
7	39	38	13.94374062394
7	40	39	13.903882643976
7	41	40	13.969130632835
7	42	41	13.884234787642
7	43	42	13.881978327318
7	44	43	13.927070145076
7	45	44	13.922745489741
7	46	45	13.95273740395
7	47	46	13.968270483359
7	48	47	13.918685564972
7	49	48	13.921468284922
7	50	49	13.897015957548
7	51	50	13.964752228069
7	52	51	13.91147568828
7	53	52	13.974545761354
7	54	53	13.965476403411
7	55	54	13.989670229855
7	56	55	13.951804798429
7	57	56	13.892850009208
7	58	57	13.958218119799
7	59	58	13.933717581006
7	60	59	13.982012811573
7	61	60	13.954506225567
7	62	61	13.954468280503
7	63	62	13.914126337939
7	64	63	13.998578815588
7	65	64	13.932968401979
7	66	65	13.954534002345
7	67	66	13.957377178506
7	68	67	13.932528918332
7	69	68	13.977439161665
7	70	69	13.873707558191
7	71	70	13.945779315263
7	72	71	13.942668949808
7	73	72	13.91575948562
7	74	73	13.907857767178
7	76	74	11.509649644586
7	77	75	8.354934886828
7	78	76	5.5437759062738
7	79	77	3.307407476074
7	80	78	1.6348540751313
7	81	79	0.71722348573033
7	82	80	0.25744643425691
7	83	81	0.096330583691781
7	84	82	0.033582834564042
7	85	83	0.012074018451278
7	86	84	0.0044146382852531
7	203	85	0.0015233755870791
7	204	86	0.00054909975708676
7	2052	87	0.00020074254418819
7	2053	88	7.1398246478238e-005
7	5400	89	2.5249602854094e-005
7	5401	90	0
7	5900	91	0
7	5901	92	0
7	6033	93	0
7	6034	94	0
7	6035	95	0
7	6036	96	0
7	6037	97	0
7	6038	98	0
7	6039	99	0
7	6040	100	0
7	6041	101	0
7	6042	102	0
7	6043	103	0
7	6045	104	0
7	6046	105	0
7	6047	106	0
7	6048	107	0
7	6049	108	0
7	6050	109	0
7	6051	110	0
7	6052	111	0
7	6053	112	0
7	6054	113	0
7	6055	114	0
7	6056	115	0
7	6057	116	0
7	6058	117	0
7	6059	118	0
7	6060	119	0
7	6061	120	0
7	6062	121	0
7	6063	122	0
7	6064	123	0
7	6066	124	1.0342890448911
7	6067	125	2.9877881705766
7	6068	126	4.8093144381847
7	6069	127	6.8172159011895
7	6070	128	8.7690167979874
7	6071	129	10.599383906506
7	6072	130	12.630911214417
7	6073	131	13.911355651631
7	6074	132	13.959096302334
7	6075	133	13.985669557508
7	6077	134	13.912786148109
7	6078	135	13.880683887878
7	6079	136	13.921652116431
7	6080	137	13.904044170342
7	6081	138	13.928399279253
7	6082	139	13.947232982973
7	6083	140	13.957098587838
7	6084	141	13.872669367229
7	6085	142	13.988834063003
7	6086	143	13.962365872057
7	6087	144	13.978590016267
7	6088	145	13.996544766314
7	6089	146	13.909791962707
7	6090	147	13.955426083545
7	6091	148	13.916719595476
7	6092	149	13.96472714375
7	6093	150	13.96898798909
7	6094	151	13.902139999291
7	6095	152	13.980534003156
7	6096	153	13.976162572829
7	6098	154	13.902045026864
7	6099	155	13.998268041729
7	6100	156	13.981719435903
7	6101	157	13.904254397955
7	6102	158	13.91068194794
7	6103	159	13.901592570813
7	6104	160	13.871256113877
7	6105	161	13.9870051032
7	6106	162	13.963580676371
7	6107	163	13.94083829636
7	6109	164	13.980116114989
7	6110	165	13.977826093403
7	6111	166	13.954251742228
7	6112	167	13.894492452065
7	6113	168	13.893317757975
7	6114	169	13.907786323659
7	6115	170	13.910502062014
7	6116	171	13.881678228341
7	6117	172	13.899310339873
7	6118	173	13.872349197764
7	6119	174	13.895146320874
7	6337	175	13.975084472168
7	6338	176	13.915615806044
7	9308	177	13.983601140513
7	9309	178	13.901822753502
7	14860	179	13.971918848483
7	14861	180	13.912339184245
7	15930	181	13.950011306256
7	15931	182	13.909387760814
7	15932	183	13.921692179195
7	15934	184	13.95886876655
7	15935	185	13.959034660405
7	15936	186	13.91489113231
7	15937	187	13.96091755718
7	15938	188	13.875510563259
7	15939	189	13.873567529691
7	15940	190	13.9133958187
7	15941	191	13.889178582483
7	15942	192	13.932158297678
7	15943	193	13.935059991931
7	15945	194	13.963504586534
7	15946	195	13.881370106079
7	15947	196	13.933884861649
7	15948	197	13.943965068546
7	15949	198	13.884444371182
7	15950	199	13.946287486863
7	15951	200	13.893841881861
8	7	6	1.7932460927567
8	8	7	1.9587017235276
8	9	8	1.7806746143266
8	10	9	1.8842620940111
8	11	10	1.9413380167005
8	12	11	0.5583961215709
8	13	12	-0.073857417434921
8	14	13	0.0092065779981212
8	15	14	0.10214026641101
8	16	15	-0.096765000070445
8	17	16	-0.0036033386224883
8	18	17	0.039975998615846
8	19	18	-0.036115438612178
8	20	19	0.074191348995083
8	21	20	-0.018364551486448
8	22	21	-0.84955461610103
8	23	22	-1.1580047743662
8	24	23	-4.4608324981877
8	25	24	0.38092674279862
8	26	25	1.7156944106473
8	27	26	2.0360211738362
8	28	27	1.9703013633797
8	29	28	0.39196811840698
8	30	29	-0.054819778876846
8	31	30	0.010270397982096
8	32	31	0.056614504742901
8	33	32	-0.029954661100637
8	34	33	-0.016613695521373
8	35	34	-0.030163104203529
8	36	35	0.018933158169965
8	37	36	-0.029659791311714
8	38	37	0.091685234303586
8	39	38	-0.045763628156855
8	40	39	-0.039857979963999
8	41	40	0.065247988859191
8	42	41	-0.08489584519295
8	43	42	-0.0022564603248618
8	44	43	0.045091817758511
8	45	44	-0.0043246553349299
8	46	45	0.029991914208512
8	47	46	0.015533079409506
8	48	47	-0.0495849183877
8	49	48	0.0027827199501917
8	50	49	-0.024452327373437
8	51	50	0.067736270520836
8	52	51	-0.053276539789513
8	53	52	0.063070073074195
8	54	53	-0.0090693579427903
8	55	54	0.024193826443517
8	56	55	-0.037865431425162
8	57	56	-0.058954789221753
8	58	57	0.065368110591081
8	59	58	-0.024500538792926
8	60	59	0.048295230567454
8	61	60	-0.027506586005911
8	62	61	-3.7945064249811e-005
8	63	62	-0.040341942564119
8	64	63	0.08445247764932
8	65	64	-0.065610413609539
8	66	65	0.021565600365866
8	67	66	0.0028431761614058
8	68	67	-0.024848260174041
8	69	68	0.044910243332852
8	70	69	-0.10373160347343
8	71	70	0.072071757072118
8	72	71	-0.0031103654555054
8	73	72	-0.02690946418792
8	74	73	-0.0079017184418628
8	76	74	-2.3982081225927
8	77	75	-3.1547147577576
8	78	76	-2.8111589805542
8	79	77	-2.2363684301998
8	80	78	-1.6725534009427
8	81	79	-0.91763058940095
8	82	80	-0.45977705147342
8	83	81	-0.16111585056513
8	84	82	-0.062747749127738
8	85	83	-0.021508816112765
8	86	84	-0.0076593801660245
8	203	85	-0.002891262698174
8	204	86	-0.00097427582999232
8	2052	87	-0.00034835721289857
8	2053	88	-0.00012934429770995
8	5400	89	-4.6148643624144e-005
8	5401	90	-2.5249602854094e-005
8	5900	91	0
8	5901	92	0
8	6033	93	0
8	6034	94	0
8	6035	95	0
8	6036	96	0
8	6037	97	0
8	6038	98	0
8	6039	99	0
8	6040	100	0
8	6041	101	0
8	6042	102	0
8	6043	103	0
8	6045	104	0
8	6046	105	0
8	6047	106	0
8	6048	107	0
8	6049	108	0
8	6050	109	0
8	6051	110	0
8	6052	111	0
8	6053	112	0
8	6054	113	0
8	6055	114	0
8	6056	115	0
8	6057	116	0
8	6058	117	0
8	6059	118	0
8	6060	119	0
8	6061	120	0
8	6062	121	0
8	6063	122	0
8	6064	123	0
8	6066	124	1.0342890448911
8	6067	125	1.9534991256854
8	6068	126	1.8215262676082
8	6069	127	2.0079014630048
8	6070	128	1.9518008967979
8	6071	129	1.8303671085183
8	6072	130	2.0315273079113
8	6073	131	1.280444437214
8	6074	132	0.047740650703199
8	6075	133	0.026573255173863
8	6077	134	-0.072883409399074
8	6078	135	-0.03210226023104
8	6079	136	0.040968228552956
8	6080	137	-0.017607946088537
8	6081	138	0.024355108910239
8	6082	139	0.018833703720011
8	6083	140	0.0098656048648991
8	6084	141	-0.084429220608435
8	6085	142	0.1161646957742
8	6086	143	-0.026468190946616
8	6087	144	0.016224144210573
8	6088	145	0.017954750047066
8	6089	146	-0.086752803607379
8	6090	147	0.045634120837786
8	6091	148	-0.038706488069147
8	6092	149	0.048007548274473
8	6093	150	0.0042608453403226
8	6094	151	-0.066847989798989
8	6095	152	0.078394003864377
8	6096	153	-0.0043714303267191
8	6098	154	-0.074117545965127
8	6099	155	0.096223014865537
8	6100	156	-0.016548605826683
8	6101	157	-0.077465037947986
8	6102	158	0.0064275499852364
8	6103	159	-0.0090893771266565
8	6104	160	-0.030336456936784
8	6105	161	0.11574898932362
8	6106	162	-0.023424426829443
8	6107	163	-0.022742380010895
8	6109	164	0.039277818629053
8	6110	165	-0.0022900215862336
8	6111	166	-0.023574351174757
8	6112	167	-0.059759290162473
8	6113	168	-0.0011746940901496
8	6114	169	0.014468565683346
8	6115	170	0.0027157383551817
8	6116	171	-0.028823833672796
8	6117	172	0.017632111532148
8	6118	173	-0.026961142108776
8	6119	174	0.022797123109923
8	6337	175	0.0799381512939
8	6338	176	-0.059468666124157
8	9308	177	0.067985334468538
8	9309	178	-0.081778387010562
8	14860	179	0.070096094980835
8	14861	180	-0.059579664238262
8	15930	181	0.037672122011426
8	15931	182	-0.040623545441775
8	15932	183	0.012304418380372
8	15934	184	0.037176587355788
8	15935	185	0.00016589385457344
8	15936	186	-0.044143528095447
8	15937	187	0.046026424870361
8	15938	188	-0.085406993920914
8	15939	189	-0.0019430335680948
8	15940	190	0.039828289009165
8	15941	191	-0.024217236216646
8	15942	192	0.042979715194088
8	15943	193	0.0029016942530866
8	15945	194	0.028444594603497
8	15946	195	-0.082134480455425
8	15947	196	0.052514755569865
8	15948	197	0.01008020689711
8	15949	198	-0.059520697363187
8	15950	199	0.061843115680386
8	15951	200	-0.052445605001413
9	7	6	3.9274001426868
9	8	7	5.2041356246368
9	9	8	5.7574507674447
9	10	9	7.0006276784153
9	11	10	8.2432295261252
9	12	11	3.9110016848773
9	13	12	1.7792042638201
9	14	13	2.0579365757541
9	15	14	2.3818636967155
9	16	15	1.7037407999188
9	17	16	2.0152488537881
9	18	17	2.1655550639215
9	19	18	1.906797412239
9	20	19	2.2849654495652
9	21	20	1.9716653983805
9	22	21	0.973
9	23	22	0.973
9	24	23	0.973
9	25	24	2.2554772362628
9	26	25	5.6120472675651
9	27	26	7.5119842129131
9	28	27	8.4455276517466
9	29	28	3.3560730035355
9	30	29	1.8466200733259
9	31	30	2.0660268329645
9	32	31	2.2281549844786
9	33	32	1.9335288120447
9	34	33	1.9767670407741
9	35	34	1.9283950769156
9	36	35	2.0949799016024
9	37	36	1.9290667558988
9	38	37	2.3468857079218
9	39	38	1.8793040227889
9	40	39	1.8954681876561
9	41	40	2.2553467174174
9	42	41	1.7429567241042
9	43	42	2.0192482635441
9	44	43	2.1827359052182
9	45	44	2.0164367628106
9	46	45	2.1348602115454
9	47	46	2.0878872407227
9	48	47	1.8642059318509
9	49	48	2.0401536442479
9	50	49	1.9464315106901
9	51	50	2.2632042711189
9	52	51	1.851180617826
9	53	52	2.2486511283506
9	54	53	2.0047870143605
9	55	54	2.1193583924862
9	56	55	1.9065956504161
9	57	56	1.8305118457369
9	58	57	2.2544630998412
9	59	58	1.9497933768092
9	60	59	2.199742909699
9	61	60	1.9416842431598
9	62	61	2.0340583936544
9	63	62	1.8947902862501
9	64	63	2.3236156337703
9	65	64	1.8116807487081
9	66	65	2.1067187558746
9	67	66	2.0440470145686
9	68	67	1.9485115452067
9	69	68	2.1878187851485
9	70	69	1.6791237400594
9	71	70	2.2755265645048
9	72	71	2.0225291815531
9	73	72	1.9399893034582
9	74	73	2.0029455902709
9	76	74	0.973
9	77	75	0.973
9	78	76	0.973
9	79	77	0.973
9	80	78	0.973
9	81	79	0.973
9	82	80	0.973
9	83	81	0.973
9	84	82	1.1111121928442
9	85	83	1.1105198636326
9	86	84	1.1102048131311
9	203	85	1.1100724261592
9	204	86	1.1100263596434
9	2052	87	1.1100096669672
9	2053	88	1.1100034420258
9	5400	89	1.11000121776
9	5401	90	0.973
9	5900	91	0.973
9	5901	92	0.973
9	6033	93	0.973
9	6034	94	0.973
9	6035	95	0.973
9	6036	96	0.973
9	6037	97	0.973
9	6038	98	0.973
9	6039	99	0.973
9	6040	100	0.973
9	6041	101	0.973
9	6042	102	0.973
9	6043	103	0.973
9	6045	104	0.973
9	6046	105	0.973
9	6047	106	0.973
9	6048	107	0.973
9	6049	108	0.973
9	6050	109	0.973
9	6051	110	0.973
9	6052	111	0.973
9	6053	112	0.973
9	6054	113	0.973
9	6055	114	0.973
9	6056	115	0.973
9	6057	116	0.973
9	6058	117	0.973
9	6059	118	0.973
9	6060	119	0.973
9	6061	120	0.973
9	6062	121	0.973
9	6063	122	0.973
9	6064	123	0.973
9	6066	124	1.4178069873607
9	6067	125	2.6632254163472
9	6068	126	3.4635077952743
9	6069	127	4.7670103137615
9	6070	128	5.7201137229883
9	6071	129	6.4069038655259
9	6072	130	8.0895409233779
9	6073	131	6.3226518416177
9	6074	132	2.1952654366489
9	6075	133	2.1269451191026
9	6077	134	1.7855558300948
9	6078	135	1.9192758908256
9	6079	136	2.1682894028507
9	6080	137	1.9700401564216
9	6081	138	2.1132780923625
9	6082	139	2.0967521261933
9	6083	140	2.0676394119274
9	6084	141	1.7435781492056
9	6085	142	2.4293300508524
9	6086	143	1.945929812323
9	6087	144	2.0913101916029
9	6088	145	2.0990577040159
9	6089	146	1.7388095837429
9	6090	147	2.1877632083839
9	6091	148	1.9005145370032
9	6092	149	2.1968042961102
9	6093	150	2.0500150684712
9	6094	151	1.8048797568188
9	6095	152	2.3009863061562
9	6096	153	2.0216810197987
9	6098	154	1.780515749493
9	6099	155	2.3632863193112
9	6100	156	1.9812120211058
9	6101	157	1.7694840250872
9	6102	158	2.0512663796081
9	6103	159	1.9983405927992
9	6104	160	1.9242939949574
9	6105	161	2.4276901516778
9	6106	162	1.9562892484012
9	6107	163	1.9563851254971
9	6109	164	2.1691450530814
9	6110	165	2.0288611293971
9	6111	166	1.9548839267273
9	6112	167	1.8279616767825
9	6113	168	2.0240172755128
9	6114	169	2.0779186428145
9	6115	170	2.0388041841175
9	6116	171	1.9303371884883
9	6117	172	2.0876231595316
9	6118	173	1.9356815008423
9	6119	174	2.1044779476447
9	6337	175	2.3055260701722
9	6338	176	1.8307829891951
9	9308	177	2.2662806746104
9	9309	178	1.7548306755801
9	14860	179	2.2720005806138
9	14861	180	1.8301239210578
9	15930	181	2.1603824443061
9	15931	182	1.8934096298549
9	15932	183	2.0721231361107
9	15934	184	2.159701123148
9	15935	185	2.0352108842241
9	15936	186	1.8821122068119
9	15937	187	2.1897049604771
9	15938	188	1.7405392922117
9	15939	189	2.0194461304072
9	15940	190	2.1635440345566
9	15941	191	1.9464673001821
9	15942	192	2.1762185599978
9	15943	193	2.0419487190356
9	15945	194	2.1308317655686
9	15946	195	1.7519620290247
9	15947	196	2.2084319203116
9	15948	197	2.0669874295082
9	15949	198	1.8278828220106
9	15950	199	2.2412082669476
9	15951	200	1.8523941164912
10	8	7	2414.8848622198
10	9	8	2412.0691307599
10	10	9	2407.3819784434
10	11	10	2402.4639103656
10	12	11	2396.2016479742
10	13	12	2388.5021761758
10	14	13	2379.5347220144
10	15	14	2369.7521497252
10	16	15	2359.9648396304
10	17	16	2350.1637192596
10	18	17	2340.717056727
10	19	18	2334.4889366638
10	20	19	2338.0188398167
10	21	20	2348.6970945761
10	22	21	2359.0578910074
10	23	22	2372.1753142256
10	24	23	2385.9847009928
10	25	24	2399.0560799135
10	26	25	2411.469456295
10	27	26	2420.8240344936
10	28	27	2428.2511095385
10	29	28	2431.5096723901
10	30	29	2433.2168502312
10	31	30	2435.2011956087
10	32	31	2437.29147981
10	33	32	2438.672857787
10	34	33	2439.5458305131
10	35	34	2440.5569901068
10	36	35	2441.5662171456
10	37	36	2442.5764760413
10	38	37	2443.5864360537
10	39	38	2444.5969193554
10	40	39	2445.6077267987
10	41	40	2446.6171177449
10	42	41	2447.6285385494
10	43	42	2448.6389437378
10	44	43	2449.6489775468
10	45	44	2450.659299592
10	46	45	2449.5461587089
10	47	46	2448.4337074455
10	48	47	2447.3207898499
10	49	48	2446.207873206
10	50	49	2445.0940501215
10	51	50	2443.9833638043
10	52	51	2442.8694501355
10	53	52	2441.7571938549
10	54	53	2440.6460889142
10	55	54	2439.6824932018
10	56	55	2438.741084579
10	57	56	2437.8178922307
10	58	57	2432.628875918
10	59	58	2422.099758557
10	60	59	2408.9617932498
10	61	60	2395.0275024913
10	62	61	2381.1194986589
10	63	62	2367.2108877165
10	64	63	2353.2913366285
10	65	64	2339.3363710896
10	66	65	2325.3913249692
10	67	66	2311.4476897647
10	68	67	2297.4983647275
10	69	68	2283.5801531249
10	70	69	2269.6389171832
10	71	70	2255.7127677456
10	72	71	2241.8359768615
10	73	72	2228.0496562888
10	74	73	2214.3204117303
10	76	74	2201.130388199
10	77	75	2187.9466372953
10	78	76	2175.8540693277
10	79	77	2166.8951848735
10	80	78	2160.0560415246
10	81	79	2155.1967882412
10	82	80	2152.0658747323
10	83	81	2150.332577554
10	84	82	2149.5013543733
10	85	83	2149.1536897024
10	86	84	2149.0206824628
10	203	85	2148.970440554
10	204	86	2148.9516145713
10	2052	87	2148.9445340966
10	2053	88	2148.941875209
10	5400	89	2148.9408856829
10	5401	90	2148.9405177742
10	5900	91	2148.9403834612
10	5901	92	2148.9403347757
10	6033	93	2148.9403174758
10	6034	94	2148.940315656
10	6035	95	2148.940315656
10	6036	96	2148.940315656
10	6037	97	2148.940315656
10	6038	98	2148.940315656
10	6039	99	2148.940315656
10	6040	100	2148.940315656
10	6041	101	2148.940315656
10	6042	102	2148.940315656
10	6043	103	2148.940315656
10	6045	104	2148.940315656
10	6046	105	2148.940315656
10	6047	106	2148.940315656
10	6048	107	2148.940315656
10	6049	108	2148.940315656
10	6050	109	2148.940315656
10	6051	110	2148.940315656
10	6052	111	2148.940315656
10	6053	112	2148.940315656
10	6054	113	2148.940315656
10	6055	114	2148.940315656
10	6056	115	2148.940315656
10	6057	116	2148.940315656
10	6058	117	2148.940315656
10	6059	118	2148.940315656
10	6060	119	2148.940315656
10	6061	120	2148.940315656
10	6062	121	2148.940315656
10	6063	122	2148.940315656
10	6064	123	2148.940315656
10	6066	124	2148.867779373
10	6067	125	2148.006387006
10	6068	126	2145.6930612726
10	6069	127	2141.8218145312
10	6070	128	2136.7224424211
10	6071	129	2131.1007176409
10	6072	130	2124.035622104
10	6073	131	2115.5696567517
10	6074	132	2106.107511217
10	6075	133	2096.5869394406
10	6077	134	2087.0584939907
10	6078	135	2077.5362118793
10	6079	136	2068.0176316402
10	6080	137	2058.490122069
10	6081	138	2048.9709266685
10	6082	139	2039.014126332
10	6083	140	2029.0102894674
10	6084	141	2019.0160271015
10	6085	142	2009.0230429181
10	6086	143	1999.0296493815
10	6087	144	1989.0340096828
10	6088	145	1979.0253904749
10	6089	146	1969.0472900324
10	6090	147	1959.0505695022
10	6091	148	1949.0396143213
10	6092	149	1939.0465518732
10	6093	150	1929.2727994483
10	6094	151	1919.5382023144
10	6095	152	1909.8129604397
10	6096	153	1900.0850484238
10	6098	154	1890.3482241657
10	6099	155	1880.634867207
10	6100	156	1870.8995915407
10	6101	157	1861.1655155318
10	6102	158	1851.4211621583
10	6103	159	1841.6858816056
10	6104	160	1831.800456682
10	6105	161	1821.6895604494
10	6106	162	1811.578060546
10	6107	163	1801.5850423535
10	6109	164	1791.6446864863
10	6110	165	1781.6948218812
10	6111	166	1771.7321169177
10	6112	167	1761.7704143757
10	6113	168	1751.8201747539
10	6114	169	1741.8621519086
10	6115	170	1731.9147435335
10	6116	171	1721.9540862279
10	6117	172	1712.0058734964
10	6118	173	1702.0423710529
10	6119	174	1692.0952204509
10	6337	175	1682.1487257886
10	6338	176	1672.1913562855
10	9308	177	1662.2346308852
10	9309	178	1652.2745482626
10	14860	179	1642.3114880947
10	14861	180	1632.3499638865
10	15930	181	1622.4089476853
10	15931	182	1612.605570305
10	15932	183	1602.7919263248
10	15934	184	1592.9750127492
10	15935	185	1583.1525460387
10	15936	186	1573.3407880549
10	15937	187	1563.5216821728
10	15938	188	1553.2000158491
10	15939	189	1542.6381294301
10	15940	190	1532.0888465907
10	15941	191	1521.5336249426
10	15942	192	1510.9623824273
[...]
287	15937	187	9.5729429067332
287	15938	188	9.6355037339576
287	15939	189	9.4827990176947
287	15940	190	9.4632167566955
287	15941	191	9.5381665426463
287	15942	192	9.517285478921
287	15943	193	9.5298932542373
287	15945	194	8.5221044811741
287	15946	195	5.6902213427225
287	15947	196	3.3402595476638
287	15948	197	1.7329510478405
287	15949	198	1.7235792034121
287	15950	199	2.9616562519636
287	15951	200	1.3995353812575
288	6119	174	1.9363564775325
288	6337	175	1.8538105956116
288	6338	176	2.1161070963019
288	9308	177	1.8966951368842
288	9309	178	0.26203085912908
288	14860	179	-0.5843728205043
288	14861	180	-0.57486636337576
288	15930	181	-0.41598530462031
288	15931	182	-0.25717157536398
288	15932	183	-0.27455489829773
288	15934	184	-0.24599887660402
288	15935	185	0.0031356235875712
288	15936	186	-0.1380948699301
288	15937	187	-0.067332952432203
288	15938	188	0.062560827224404
288	15939	189	-0.15270471626295
288	15940	190	-0.019582260999165
288	15941	191	0.074949785950832
288	15942	192	-0.020881063725348
288	15943	193	0.012607775316344
288	15945	194	-1.0077887730632
288	15946	195	-2.8318831384516
288	15947	196	-2.3499617950587
288	15948	197	-1.6073084998232
288	15949	198	-0.00937184442848
288	15950	199	1.2380770485515
288	15951	200	-1.5621208707061
289	6119	174	4.2191245201102
289	6337	175	5.0422190845387
289	6338	176	6.7667044788304
289	9308	177	7.2608327506901
289	9309	178	2.6257528006896
289	14860	179	0.973
289	14861	180	0.973
289	15930	181	0.973
289	15931	182	0.973
289	15932	183	0.973
289	15934	184	0.973
289	15935	185	1.6754698182512
289	15936	186	1.3369741257495
289	15937	187	1.4974981128732
289	15938	188	1.8027338017435
289	15939	189	1.2972397014406
289	15940	190	1.6001324746008
289	15941	191	1.8225698754696
289	15942	192	1.6008561362942
289	15943	193	1.6786317570085
289	15945	194	0.973
289	15946	195	0.973
289	15947	196	0.973
289	15948	197	0.973
289	15949	198	1.1897255655383
289	15950	199	2.1389589365366
289	15951	200	0.973
290	6337	175	2414.8507656208
290	6338	176	2411.9166085786
290	9308	177	2407.311591176
290	9309	178	2402.3521297106
290	14860	179	2395.9970766972
290	14861	180	2388.3161530445
290	15930	181	2379.3232352471
290	15931	182	2370.1374710435
290	15932	183	2360.9389348873
290	15934	184	2351.8163392271
290	15935	185	2343.1936224323
290	15936	186	2336.0378607393
290	15937	187	2333.8774951611
290	15938	188	2339.1638988096
290	15939	189	2347.1068353503
290	15940	190	2354.6249975755
290	15941	191	2362.2669435883
290	15942	192	2371.9661596079
290	15943	193	2381.6398772618
290	15945	194	2391.1432078863
290	15946	195	2399.1363909505
290	15947	196	2405.2866038507
290	15948	197	2409.7962370255
290	15949	198	2412.966575895
290	15950	199	2415.6440256907
290	15951	200	2418.5976923169
291	6337	175	1578.4602128109
291	6338	176	1579.5376199633
291	9308	177	1581.4018611619
291	9309	178	1586.4251123844
291	14860	179	1592.8619055804
291	14861	180	1600.6416230751
291	15930	181	1609.7502098912
291	15931	182	1619.0541235488
291	15932	183	1628.3709734352
291	15934	184	1637.6109060617
291	15935	185	1646.3445302621
291	15936	186	1655.4666296374
291	15937	187	1666.1654852172
291	15938	188	1674.7693340909
291	15939	189	1681.3615953792
291	15940	190	1688.1416623825
291	15941	191	1694.1629265277
291	15942	192	1695.6126530003
291	15943	193	1696.9203467099
291	15945	194	1697.9381007459
291	15946	195	1698.6939095818
291	15947	196	1699.2754532825
291	15948	197	1699.701869214
291	15949	198	1700.0016459255
291	15950	199	1700.254816683
291	15951	200	1700.5341055868
292	6338	176	3.902580489948
292	9308	177	5.8199849037766
292	9309	178	8.0625432261858
292	14860	179	9.8568281443823
292	14861	180	11.866019668373
292	15930	181	13.105884790412
292	15931	182	13.041504885508
292	15932	183	13.041884611953
292	15934	184	12.729845704138
292	15935	185	11.962938912371
292	15936	186	11.280746076516
292	15937	187	10.851871642446
292	15938	188	10.556701065733
292	15939	189	10.145056951114
292	15940	190	9.9693066250766
292	15941	191	9.8097269540507
292	15942	192	9.7137587843044
292	15943	193	9.7400743944075
292	15945	194	9.173936388084
292	15946	195	7.1958451591181
292	15947	196	5.4161059818096
292	15948	197	3.8472550174209
292	15949	198	2.7483335380907
292	15950	199	2.8061268329874
292	15951	200	2.4877404817342
293	9308	177	1.9174044138286
293	9309	178	2.2425583224092
293	14860	179	1.7942849181965
293	14861	180	2.0091915239906
293	15930	181	1.2398651220391
293	15931	182	-0.064379904903472
293	15932	183	0.0003797264443719
293	15934	184	-0.31203890781473
293	15935	185	-0.76690679176682
293	15936	186	-0.68219283585532
293	15937	187	-0.42887443407001
293	15938	188	-0.29517057671244
293	15939	189	-0.41164411461904
293	15940	190	-0.17575032603781
293	15941	191	-0.15957967102599
293	15942	192	-0.095968169746302
293	15943	193	0.02631561010319
293	15945	194	-0.56613800632355
293	15946	195	-1.9780912289659
293	15947	196	-1.7797391773084
293	15948	197	-1.5688509643888
293	15949	198	-1.0989214793301
293	15950	199	0.057793294896697
293	15951	200	-0.31838635125319
294	9308	177	4.0983500623511
294	9309	178	5.9048074223586
294	14860	179	5.9362768872955
294	14861	180	7.5824667052674
294	15930	181	5.8663206102323
294	15931	182	1.7416825211443
294	15932	183	1.9452584677808
294	15934	184	0.973
294	15935	185	0.973
294	15936	186	0.973
294	15937	187	0.973
294	15938	188	0.973
294	15939	189	0.973
294	15940	190	1.2601919714763
294	15941	191	1.293157289677
294	15942	192	1.4385997054506
294	15943	193	1.726994348837
294	15945	194	0.973
294	15946	195	0.973
294	15947	196	0.973
294	15948	197	0.973
294	15949	198	0.973
294	15950	199	1.2864930518852
294	15951	200	0.973
295	9309	178	2414.845651646
295	14860	179	2411.8052859687
295	14861	180	2407.1980541121
295	15930	181	2402.4702562084
295	15931	182	2396.4284617362
295	15932	183	2389.1494465446
295	15934	184	2380.5461009459
295	15935	185	2371.6687005891
295	15936	186	2362.814266327
295	15937	187	2353.9496157488
295	15938	188	2345.0791371617
295	15939	189	2337.062536558
295	15940	190	2333.8823984745
295	15941	191	2340.618640716
295	15942	192	2350.2095796211
295	15943	193	2359.4656672195
295	15945	194	2370.5502933774
295	15946	195	2380.790046021
295	15947	196	2389.3193590635
295	15948	197	2396.2538487454
295	15949	198	2401.6765112801
295	15950	199	2405.9321638629
295	15951	200	2409.6633604968
296	9309	178	1578.4620906357
296	14860	179	1579.5784970447
296	14861	180	1581.5168585666
296	15930	181	1586.3054665159
296	15931	182	1592.4249719661
296	15932	183	1599.7976115588
296	15934	184	1608.5116154067
296	15935	185	1617.5031989701
296	15936	186	1626.4715210432
296	15937	187	1635.4501908366
296	15938	188	1644.4347636001
296	15939	189	1654.1548851067
296	15940	190	1666.0960216122
296	15941	191	1675.9441256644
296	15942	192	1684.159727877
296	15943	193	1692.507099513
296	15945	194	1695.4010257153
296	15946	195	1696.819197827
296	15947	196	1697.76564366
296	15948	197	1698.4213459669
296	15949	198	1698.9340949217
296	15950	199	1699.3364952924
296	15951	200	1699.689304851
297	14860	179	4.0885431242836
297	14861	180	5.8312335044108
297	15930	181	7.6018188300225
297	15931	182	9.4338875167453
297	15932	183	11.167156285977
297	15934	184	12.651966990961
297	15935	185	12.664891141646
297	15936	186	12.610116668281
297	15937	187	12.594501812467
297	15938	188	12.59296224195
297	15939	189	12.593820524497
297	15940	190	12.665210515759
297	15941	191	12.57542728883
297	15942	192	12.642046168819
297	15943	193	12.129109343732
297	15945	194	11.278349657818
297	15946	195	9.5741192032944
297	15947	196	7.8124657821474
297	15948	197	6.3130944830265
297	15949	198	4.8219141960218
297	15950	199	3.8859042911766
297	15951	200	3.5059647883802
298	14861	180	1.7426903801272
298	15930	181	1.7705853256118
298	15931	182	1.8320686867228
298	15932	183	1.7332687692321
298	15934	184	1.4848107049838
298	15935	185	0.012924150684849
298	15936	186	-0.054774473365397
298	15937	187	-0.015614855813329
298	15938	188	-0.0015395705169059
298	15939	189	0.00085828254697873
298	15940	190	0.07138999126153
298	15941	191	-0.089783226929139
298	15942	192	0.066618879989255
298	15943	193	-0.51293682508665
298	15945	194	-0.85075968591419
298	15946	195	-1.7042304545238
298	15947	196	-1.761653421147
298	15948	197	-1.4993712991209
298	15949	198	-1.4911802870047
298	15950	199	-0.9360099048452
298	15951	200	-0.37993950279643
299	14861	180	3.8586660115823
299	15930	181	4.7610731706013
299	15931	182	5.807982688318
299	15932	183	6.4420705186075
299	15934	184	6.4347913025501
299	15935	185	1.9480642603649
299	15936	186	1.7370882829465
299	15937	187	1.85471407652
299	15938	188	1.8972950685894
299	15939	189	1.9046516265837
299	15940	190	2.1265510642023
299	15941	191	1.6282480100848
299	15942	192	2.1094708866251
299	15943	193	0.973
299	15945	194	0.973
299	15946	195	0.973
299	15947	196	0.973
299	15948	197	0.973
299	15949	198	0.973
299	15950	199	0.973
299	15951	200	0.973
300	15930	181	2414.8458276661
300	15931	182	2411.9446482578
300	15932	183	2407.3135280587
300	15934	184	2402.4812466792
300	15935	185	2396.3747360548
300	15936	186	2388.9841917993
300	15937	187	2381.1001986676
300	15938	188	2373.2299067961
300	15939	189	2365.3473441999
300	15940	190	2357.4688826787
300	15941	191	2349.5920035493
300	15942	192	2341.8762812882
300	15943	193	2335.2462161097
300	15945	194	2333.981153629
300	15946	195	2341.0200671674
300	15947	196	2349.5402840044
300	15948	197	2357.8712282606
300	15949	198	2367.8837946787
300	15950	199	2378.9594591989
300	15951	200	2388.8112431263
301	15930	181	1578.4620260019
301	15931	182	1579.5273239398
301	15932	183	1581.3998993672
301	15934	184	1586.2943346836
301	15935	185	1592.4793886803
301	15936	186	1599.9649918498
301	15937	187	1607.9503907505
301	15938	188	1615.9219121626
301	15939	189	1623.9058621284
301	15940	190	1631.8856582697
301	15941	191	1639.8638516665
301	15942	192	1647.992542631
301	15943	193	1656.9248029822
301	15945	194	1668.0021744473
301	15946	195	1676.2683016649
301	15947	196	1683.556140326
301	15948	197	1691.0691945236
301	15949	198	1695.0024683736
301	15950	199	1696.6013171421
301	15951	200	1697.7175979046
302	15931	182	3.9269539870051
302	15932	183	5.8002674975325
302	15934	184	7.7127356081488
302	15935	185	9.5175946492571
302	15936	186	11.172047769621
302	15937	187	11.222112760931
302	15938	188	11.237110601808
302	15939	189	11.223014450733
302	15940	190	11.224865988666
302	15941	191	11.252537847912
302	15942	192	11.219138078341
302	15943	193	11.200181706716
302	15945	194	11.21318813925
302	15946	195	11.228264632058
302	15947	196	11.258256208022
302	15948	197	11.17863644471
302	15949	198	11.157595734373
302	15950	199	11.09865603463
302	15951	200	8.9438387724134
303	15932	183	1.8733135105274
303	15934	184	1.9124681106163
303	15935	185	1.8048590411083
303	15936	186	1.654453120364
303	15937	187	0.050064991309773
303	15938	188	0.014997840877621
303	15939	189	-0.01409615107579
303	15940	190	0.0018515379331063
303	15941	191	0.027671859245748
303	15942	192	-0.033399769570678
303	15943	193	-0.018956371624954
303	15945	194	0.01300643253373
303	15946	195	0.015076492808292
303	15947	196	0.029991575963797
303	15948	197	-0.07961976331193
303	15949	198	-0.021040710336528
303	15950	199	-0.058939699743446
303	15951	200	-2.1548172622164
304	15932	183	4.0264700178169
304	15934	184	5.0792829595244
304	15935	185	5.7886509309795
304	15936	186	6.232310610482
304	15937	187	1.9173128715772
304	15938	188	1.8237745913161
304	15939	189	1.7438590971807
304	15940	190	1.7871483396851
304	15941	191	1.8594853617298
304	15942	192	1.691356643062
304	15943	193	1.7289208891964
304	15945	194	1.8163171853456
304	15946	195	1.8232194020767
304	15947	196	1.8662940628765
304	15948	197	1.5638020964066
304	15949	198	1.7199814634886
304	15950	199	1.6140430011801
304	15951	200	0.973
305	15934	184	2414.8659803072
305	15935	185	2411.8497403887
305	15936	186	2407.19367617
305	15937	187	2402.2546455382
305	15938	188	2395.9417766988
305	15939	189	2388.3377681752
305	15940	190	2379.5936033784
305	15941	191	2370.5813471138
305	15942	192	2361.5634380431
305	15943	193	2352.547527067
305	15945	194	2343.5301164456
305	15946	195	2335.5804369914
305	15947	196	2334.0800450913
305	15948	197	2342.5340171643
305	15949	198	2351.73160097
305	15950	199	2360.6129223714
305	15951	200	2371.332401081
306	15934	184	1578.4546260573
306	15935	185	1579.5621736133
306	15936	186	1581.5212928187
306	15937	187	1586.5238504214
306	15938	188	1592.9179168604
306	15939	189	1600.6197299259
306	15940	190	1609.4763642214
306	15941	191	1618.6045382405
306	15942	192	1627.7384377737
306	15943	193	1636.8703135122
306	15945	194	1646.0037081847
306	15946	195	1656.0522032296
306	15947	196	1668.6294288645
306	15948	197	1677.4909073319
306	15949	198	1685.5323248524
306	15950	199	1693.541722944
306	15951	200	1695.5179261155
307	15935	185	4.0831189165961
307	15936	186	6.0231934725328
307	15937	187	7.891952440331
307	15938	188	9.8740337577506
307	15939	189	11.514586912945
307	15940	190	12.886969563944
307	15941	191	12.775254835197
307	15942	192	12.852036737073
307	15943	193	12.843793071836
307	15945	194	12.83389829935
307	15946	195	12.778866284943
307	15947	196	12.637312277623
307	15948	197	12.380861506611
307	15949	198	12.111571444296
307	15950	199	11.868708210603
307	15951	200	10.301776371297
308	15936	186	1.9400745559367
308	15937	187	1.8687589677982
308	15938	188	1.9820813174197
308	15939	189	1.6405531551945
308	15940	190	1.3723826509992
308	15941	191	-0.11171472874703
308	15942	192	0.076781901875512
308	15943	193	-0.008243665236515
308	15945	194	-0.0098947724862946
308	15946	195	-0.055032014406752
308	15947	196	-0.14155400732061
308	15948	197	-0.25645077101118
308	15949	198	-0.26929006231589
308	15950	199	-0.24286323369302
308	15951	200	-1.5669318393054
309	15936	186	4.2369370870102
309	15937	187	5.0904209387123
309	15938	188	6.3918992915099
309	15939	189	6.3590560555307
309	15940	190	6.1916664847361
309	15941	191	1.5749380613208
309	15942	192	2.1639069288264
309	15943	193	1.8997953496367
309	15945	194	1.8937788457915
309	15946	195	1.7497445795536
309	15947	196	1.4749471896288
309	15948	197	0.973
309	15949	198	0.973
309	15950	199	0.973
309	15951	200	0.973
310	15937	187	2414.8757513213
310	15938	188	2412.0361360551
310	15939	189	2407.4214051443
310	15940	190	2402.5966667971
310	15941	191	2396.4300143193
310	15942	192	2388.9036915726
310	15943	193	2380.0020954288
310	15945	194	2370.6426547997
310	15946	195	2361.262512156
310	15947	196	2351.9047702637
310	15948	197	2342.6055761403
310	15949	198	2335.0945354523
310	15950	199	2334.9618278013
310	15951	200	2345.0416944089
311	15937	187	1578.451038192
311	15938	188	1579.493730098
311	15939	189	1581.2906347411
311	15940	190	1586.1774300048
311	15941	191	1592.423399413
311	15942	192	1600.0465274891
311	15943	193	1609.0626180507
311	15945	194	1618.5424420005
311	15946	195	1628.0432342403
311	15947	196	1637.5213376042
311	15948	197	1647.0589317121
311	15949	198	1657.8382827621
311	15950	199	1670.8622733187
311	15951	200	1679.5160075128
312	15938	188	3.8804163187024
312	15939	189	5.817040498874
312	15940	190	7.6459528622034
312	15941	191	9.6906429893596
312	15942	192	11.606719386445
312	15943	193	13.368600510827
312	15945	194	13.28201728723
312	15946	195	13.353291114026
312	15947	196	13.328873075738
312	15948	197	13.383455119096
312	15949	198	13.297745379687
312	15950	199	13.32958400463
312	15951	200	13.314726152935
313	15939	189	1.9366241801716
313	15940	190	1.8289123633294
313	15941	191	2.0446901271562
313	15942	192	1.9160763970856
313	15943	193	1.7618811243817
313	15945	194	-0.086583223596682
313	15946	195	0.071273826796096
313	15947	196	-0.024418038288131
313	15948	197	0.054582043357659
313	15949	198	-0.085709739408921
313	15950	199	0.031838624943047
313	15951	200	-0.01485785169527
314	15939	189	4.1237641255823
314	15940	190	4.8902233506552
314	15941	191	6.4368058243494
314	15942	192	7.1740387051116
314	15943	193	7.6521018786507
314	15945	194	1.6900281460165
314	15946	195	2.2034890686141
314	15947	196	1.8933002705452
314	15948	197	2.1531183815004
314	15949	198	1.6940278431987
314	15950	199	2.0740859654476
314	15951	200	1.9226824735298
315	15940	190	2414.8650613014
315	15941	191	2411.8313019879
315	15942	192	2407.124552844
315	15943	193	2401.9996624849
315	15945	194	2395.3239562415
315	15946	195	2387.2831514617
315	15947	196	2377.919520708
315	15948	197	2368.3464164902
315	15949	198	2358.789245158
315	15950	199	2349.2414220867
315	15951	200	2340.1033399801
316	15940	190	1578.4549635118
316	15941	191	1579.5689440984
316	15942	192	1581.5913052252
316	15943	193	1586.7821131265
316	15945	194	1593.5436838698
316	15946	195	1601.687911367
316	15947	196	1611.1719793361
316	15948	197	1620.8682150664
316	15949	198	1630.5483129788
316	15950	199	1640.2189423898
316	15951	200	1650.2621834502
317	15941	191	4.1349495721361
317	15942	192	6.0716839491981
317	15943	193	8.3020552311358
317	15945	194	10.400064024849
317	15946	195	12.427143237808
317	15947	196	13.539558347476
317	15948	197	13.545396598827
317	15949	198	13.618747223339
317	15950	199	13.603274421499
317	15951	200	13.586088463225
318	15942	192	1.9367343770619
318	15943	193	2.2303712819377
318	15945	194	2.0980087937135
318	15946	195	2.0270792129589
318	15947	196	1.1124151096677
318	15948	197	0.0058382513513795
318	15949	198	0.073350624511949
318	15950	199	-0.015472801839932
318	15951	200	-0.01718595827464
319	15942	192	4.2575522418093
319	15943	193	6.0258678371106
319	15945	194	6.9740962970096
319	15946	195	7.9577600550767
319	15947	196	5.6222866984587
319	15948	197	2.012075860777
319	15949	198	2.2410510777876
319	15950	199	1.9480389852312
319	15951	200	1.9407844726519
320	15943	193	2414.8548644851
320	15945	194	2411.680870802
320	15946	195	2406.7494759384
320	15947	196	2401.5163988242
320	15948	197	2394.8248928592
320	15949	198	2386.8123283826
320	15950	199	2377.473866021
320	15951	200	2367.6814751487
321	15943	193	1578.4587077294
321	15945	194	1579.624181645
321	15946	195	1581.9712064583
321	15947	196	1587.2715926375
321	15948	197	1594.0491663218
321	15949	198	1602.164790283
321	15950	199	1611.623366138
321	15951	200	1621.5417090394
322	15945	194	4.3785919786299
322	15946	195	6.4091077215372
322	15947	196	8.4315614050519
322	15948	197	10.39082506989
322	15949	198	12.274772594588
322	15950	199	13.883126223891
322	15951	200	13.918090396861
323	15946	195	2.0305157429073
323	15947	196	2.0224536835146
323	15948	197	1.9592636648379
323	15949	198	1.8839475246984
323	15950	199	1.6083536293023
323	15951	200	0.034964172970504
324	15946	195	4.57981984376
324	15947	196	5.6817499750027
324	15948	197	6.6212585086741
324	15949	198	7.4461158869208
324	15950	199	7.4081973888047
324	15951	200	2.147751997247
325	15947	196	2414.8769683659
325	15948	197	2412.0564856079
325	15949	198	2407.4676977313
325	15950	199	2402.663560528
325	15951	200	2396.5274205491
326	15947	196	1578.4505912997
326	15948	197	1579.4862578483
326	15949	198	1581.2437467277
326	15950	199	1586.1096758712
326	15951	200	1592.3247403214
327	15948	197	3.8481264791193
327	15949	198	5.8155300119843
327	15950	199	7.6658310651567
327	15951	200	9.5357295588867
328	15949	198	1.967403532865
328	15950	199	1.8503010531724
328	15951	200	1.86989849373
329	15949	198	4.166110692362
329	15950	199	4.9397817067217
329	15951	200	5.947337921837
330	15950	199	2414.8293824452
330	15951	200	2411.7653542396
331	15950	199	1578.4680646015
331	15951	200	1579.5931597669
332	15951	200	4.1270271831314

